                                   MODFLOW 6
                U.S. GEOLOGICAL SURVEY MODULAR HYDROLOGIC MODEL
                          GROUNDWATER FLOW MODEL (GWF)
                            VERSION 6.4.4 02/13/2024

   MODFLOW 6 compiled Feb 13 2024 15:40:13 with Intel(R) Fortran Intel(R) 64
   Compiler Classic for applications running on Intel(R) 64, Version 2021.7.0
                             Build 20220726_000000

This software has been approved for release by the U.S. Geological 
Survey (USGS). Although the software has been subjected to rigorous 
review, the USGS reserves the right to update the software as needed 
pursuant to further analysis and review. No warranty, expressed or 
implied, is made by the USGS or the U.S. Government as to the 
functionality of the software and related material nor shall the 
fact of release constitute any such warranty. Furthermore, the 
software is released on condition that neither the USGS nor the U.S. 
Government shall be held liable for any damages resulting from its 
authorized or unauthorized use. Also refer to the USGS Water 
Resources Software User Rights Notice for complete use, copyright, 
and distribution information.


As a work of the United States Government, this USGS product is 
in the public domain within the United States. You can copy, 
modify, distribute, and perform the work, even for commercial 
purposes, all without asking permission. Additionally, USGS 
waives copyright and related rights in the work worldwide 
through CC0 1.0 Universal Public Domain Dedication 
(https://creativecommons.org/publicdomain/zero/1.0/).

The following GNU Lesser General Public License (LGPL) libraries
are used in this USGS product:

    SPARSKIT version 2.0
      ilut, luson, and qsplit 
      (https://www-users.cse.umn.edu/~saad/software/SPARSKIT/)

    RCM - Reverse Cuthill McKee Ordering
      (https://people.math.sc.edu/Burkardt/f_src/rcm/rcm.html)

    BLAS - Basic Linear Algebra Subprograms Level 1
      (https://people.math.sc.edu/Burkardt/f_src/blas1_d/blas1_d.html)

    SPARSEKIT - Sparse Matrix Utility Package
      amux, dperm, dvperm, rperm, and cperm
      (https://people.sc.fsu.edu/~jburkardt/f77_src/sparsekit/sparsekit.html)

The following BSD-3 License libraries are used in this USGS product:

    Modern Fortran DAG Library
      Copyright (c) 2018, Jacob Williams
      All rights reserved.
      (https://github.com/jacobwilliams/daglib)

MODFLOW 6 compiler options: /Isrc\libmf6core.a.p /Isrc /I..\src
/Isrc\libmf6_external.a.p /MTd /nologo /warn:general /warn:truncated_source
/stand:f08 /Zi /traceback /O2 /fpe:0 /heap-arrays:0 /traceback /fpp
/Qdiag-disable:7416 /Qdiag-disable:7025 /Qdiag-disable:5268
/Fdsrc\libmf6core.a.p\Utilities_compilerversion.F90.pdb
/module:src\libmf6core.a.p
/Fosrc/libmf6core.a.p/Utilities_compilerversion.F90.obj /c

System command used to initiate simulation:
"F:\新建文件夹\给韩尚麒\衡水模型\地面沉降包离散节点小论文\新版本算例\Case study\算例1\Thickness of 50 m\MODFLOW-CSUB\mf6.exe"

MODFLOW was compiled using uniform precision.

Real Variables
  KIND: 8
  TINY (smallest non-zero value):    2.225074-308
  HUGE (largest value):    1.797693+308
  PRECISION: 15
  SIZE IN BITS: 64

Integer Variables
  KIND: 4
  HUGE (largest value): 2147483647
  SIZE IN BITS: 32

Long Integer Variables
  KIND: 8
  HUGE (largest value): 9223372036854775807
  SIZE IN BITS: 64

Logical Variables
  KIND: 4
  SIZE IN BITS: 32
 
 NAMEFILE OPTIONS:
    FLOWS WILL BE SAVED TO BUDGET FILE SPECIFIED IN OUTPUT CONTROL
 END NAMEFILE OPTIONS:

 DIS -- STRUCTURED GRID DISCRETIZATION PACKAGE, VERSION 2 : 3/27/2014 - INPUT READ FROM MEMPATH: __INPUT__/CASE1-50/DIS                            


 NPF -- NODE PROPERTY FLOW PACKAGE, VERSION 1, 3/30/2015 INPUT READ FROM MEMPATH: __INPUT__/CASE1-50/NPF                            


 IC -- Initial Conditions Package, Version 8, 3/28/2015 input read from mempath: __INPUT__/CASE1-50/IC                             


 Setting Discretization Options
    Model length unit [0=UND, 1=FEET, 2=METERS, 3=CENTIMETERS] set as 2
 End Setting Discretization Options

 Setting Discretization Dimensions
    NLAY = 1
    NROW = 1
    NCOL = 3
 End Setting Discretization Dimensions

 Setting Discretization Griddata
    DELR set from input file
    DELC set from input file
    TOP set from input file
    BOTM set from input file
 End Setting Discretization Griddata

 Setting NPF Options
    Specific discharge will be calculated at cell centers and written to DATA-SPDIS in budget file when requested.
 End Setting NPF Options

 Setting NPF Griddata
    ICELLTYPE set from input file
    K set from input file
    K33 not provided.  Setting K33 = K.
    K22 not provided.  Setting K22 = K.
 End Setting NPF Griddata


 CHD   -- CHD PACKAGE, VERSION 8, 2/22/2014 INPUT READ FROM MEMPATH: __INPUT__/CASE1-50/CHD_0                          

 PROCESSING CHD BASE OPTIONS
 END OF CHD BASE OPTIONS

 PROCESSING CHD BASE DIMENSIONS
    MAXBOUND =       2
 END OF CHD BASE DIMENSIONS
    STRT set from input file

 STO -- STORAGE PACKAGE, VERSION 1, 5/19/2014 INPUT READ FROM UNIT 1005


 # File generated by Flopy version 3.6.0.dev0 on 02/07/2024 at 20:14:53.
 PROCESSING STORAGE OPTIONS
 END OF STORAGE OPTIONS
 PROCESSING GRIDDATA

                 ICONVERT = 0

         SPECIFIC STORAGE =   0.000000    

           SPECIFIC YIELD =   0.000000    
 END PROCESSING GRIDDATA

 CSUB -- COMPACTION PACKAGE, VERSION 1, 12/15/2019 INPUT READ FROM UNIT 1010


 # File generated by Flopy version 3.6.0.dev0 on 02/07/2024 at 20:14:53.
 PROCESSING CSUB OPTIONS
    CSUB BOUNDARIES HAVE NAMES IN LAST COLUMN.
    LISTS OF CSUB CELLS WILL BE PRINTED.
    FLOWS WILL BE SAVED TO BUDGET FILE SPECIFIED IN OUTPUT CONTROL

 OPENED case1-50.csub.obs
 FILE TYPE:OBS   UNIT 1014   STATUS:OLD                 
 FORMAT:FORMATTED              ACCESS:SEQUENTIAL          
 ACTION:READ                

 END OF CSUB OPTIONS


 CSUB PACKAGE SETTINGS
    NUMBER OF DELAY CELLS = 19
    EFFECTIVE-STRESS FORMULATION
    ELASTIC AND INELASTIC SPECIFIC STORAGE COEFFICIENTS WILL BE 
      SPECIFIED
    THICKNESS AND VOID RATIO WILL NOT BE ADJUSTED DURING THE
      SIMULATION
    INTERBED THICKNESS WILL BE SPECIFIED AS A THICKNESS
    PRECONSOLIDATION STRESS WILL BE SPECIFIED RELATIVE TO INITIAL
      STRESS CONDITIONS
    DELAY INTERBED HEADS WILL BE SPECIFIED RELATIVE TO INITIAL 
      GWF HEADS
    SPECIFIC STORAGE VALUES WILL BE CALCULATED USING THE CURRENT
      EFFECTIVE STRESS
    GAMMAW        = 9806.650000000000
    BETA          = .000000000000000
    GAMMAW * BETA = .000000000000000

 PROCESSING CSUB DIMENSIONS
    NINTERBEDS = 1
 END OF CSUB DIMENSIONS

The observation utility is active for "CSUB"
 # File generated by Flopy version 3.6.0.dev0 on 02/07/2024 at 20:14:53.

Processing observation options:

Text output number of digits of precision set to: 10
The PRINT_INPUT option has been specified.


 OBSERVATIONS READ FROM FILE "case1-50.csub.obs"
 ----------------------------------------------------------------------------------------------------------------------------------------------------------------------------------------------------------------------------
 NAME                                     TYPE                                       TIME         LOCATION DATA                              OUTPUT FILENAME                                                                 
 ----------------------------------------------------------------------------------------------------------------------------------------------------------------------------------------------------------------------------
 TCOMP                                    CONTINUOUS  INTERBED-COMPACTION            ALL TIMES    "  ib1"                                    case1-50.csub.obs.csv                                                           
 SK                                       CONTINUOUS  SK                             ALL TIMES    "  ib1"                                    case1-50.csub.obs.csv                                                           
 QTOP                                     CONTINUOUS  DELAY-FLOWTOP                  ALL TIMES    "  1"                                      case1-50.csub.obs.csv                                                           
 QBOT                                     CONTINUOUS  DELAY-FLOWBOT                  ALL TIMES    "  1"                                      case1-50.csub.obs.csv                                                           
 H0001                                    CONTINUOUS  DELAY-HEAD                     ALL TIMES    "  1  1"                                   case1-50.csub.obs.csv                                                           
 H0002                                    CONTINUOUS  DELAY-HEAD                     ALL TIMES    "  1  2"                                   case1-50.csub.obs.csv                                                           
 H0003                                    CONTINUOUS  DELAY-HEAD                     ALL TIMES    "  1  3"                                   case1-50.csub.obs.csv                                                           
 H0004                                    CONTINUOUS  DELAY-HEAD                     ALL TIMES    "  1  4"                                   case1-50.csub.obs.csv                                                           
 H0005                                    CONTINUOUS  DELAY-HEAD                     ALL TIMES    "  1  5"                                   case1-50.csub.obs.csv                                                           
 H0006                                    CONTINUOUS  DELAY-HEAD                     ALL TIMES    "  1  6"                                   case1-50.csub.obs.csv                                                           
 H0007                                    CONTINUOUS  DELAY-HEAD                     ALL TIMES    "  1  7"                                   case1-50.csub.obs.csv                                                           
 H0008                                    CONTINUOUS  DELAY-HEAD                     ALL TIMES    "  1  8"                                   case1-50.csub.obs.csv                                                           
 H0009                                    CONTINUOUS  DELAY-HEAD                     ALL TIMES    "  1  9"                                   case1-50.csub.obs.csv                                                           
 H0010                                    CONTINUOUS  DELAY-HEAD                     ALL TIMES    "  1  10"                                  case1-50.csub.obs.csv                                                           
 H0011                                    CONTINUOUS  DELAY-HEAD                     ALL TIMES    "  1  11"                                  case1-50.csub.obs.csv                                                           
 H0012                                    CONTINUOUS  DELAY-HEAD                     ALL TIMES    "  1  12"                                  case1-50.csub.obs.csv                                                           
 H0013                                    CONTINUOUS  DELAY-HEAD                     ALL TIMES    "  1  13"                                  case1-50.csub.obs.csv                                                           
 H0014                                    CONTINUOUS  DELAY-HEAD                     ALL TIMES    "  1  14"                                  case1-50.csub.obs.csv                                                           
 H0015                                    CONTINUOUS  DELAY-HEAD                     ALL TIMES    "  1  15"                                  case1-50.csub.obs.csv                                                           
 H0016                                    CONTINUOUS  DELAY-HEAD                     ALL TIMES    "  1  16"                                  case1-50.csub.obs.csv                                                           
 H0017                                    CONTINUOUS  DELAY-HEAD                     ALL TIMES    "  1  17"                                  case1-50.csub.obs.csv                                                           
 H0018                                    CONTINUOUS  DELAY-HEAD                     ALL TIMES    "  1  18"                                  case1-50.csub.obs.csv                                                           
 H0019                                    CONTINUOUS  DELAY-HEAD                     ALL TIMES    "  1  19"                                  case1-50.csub.obs.csv                                                           
 EST                                      CONTINUOUS  DELAY-ESTRESS                  ALL TIMES    "  1  1"                                   case1-50.csub.obs.csv                                                           
 ESM                                      CONTINUOUS  DELAY-ESTRESS                  ALL TIMES    "  1  11"                                  case1-50.csub.obs.csv                                                           
 ESB                                      CONTINUOUS  DELAY-ESTRESS                  ALL TIMES    "  1  19"                                  case1-50.csub.obs.csv                                                           
 PST                                      CONTINUOUS  DELAY-PRECONSTRESS             ALL TIMES    "  1 1"                                    case1-50.csub.obs.csv                                                           
 PSM                                      CONTINUOUS  DELAY-PRECONSTRESS             ALL TIMES    "  1 11"                                   case1-50.csub.obs.csv                                                           
 PSB                                      CONTINUOUS  DELAY-PRECONSTRESS             ALL TIMES    "  1 19"                                   case1-50.csub.obs.csv                                                           
 GS                                       CONTINUOUS  GSTRESS-CELL                   ALL TIMES    "  1 1 2"                                  case1-50.csub.obs.csv                                                           
 ES                                       CONTINUOUS  ESTRESS-CELL                   ALL TIMES    "  1 1 2"                                  case1-50.csub.obs.csv                                                           
 ----------------------------------------------------------------------------------------------------------------------------------------------------------------------------------------------------------------------------



 CG_SKE_CR =   0.000000    

 CG_THETA =  0.2000000    

 SGM =   1.700000    

 SGS =   2.000000    

 PROCESSING CSUB PACKAGEDATA
 END OF CSUB PACKAGEDATA

 CSUB PACKAGE INTERBED DATA
 ---------------------------------------------------------------------------------------------------------------------------------------------------------------------------
 INTERBED          CELLID          CDELAY      PCS       THICK       RNB       SSV_CC     SSV_CR     THETA        KV         H0     BOUNDNAME                               
 ---------------------------------------------------------------------------------------------------------------------------------------------------------------------------
 1                (1,1,2)          DELAY    -10.0       50.0       1.00       1.000E-02  1.000E-05  0.450      1.000E-03  10.0      IB1                                     
 ---------------------------------------------------------------------------------------------------------------------------------------------------------------------------



The observation utility is active for "CASE1-50"
 # File generated by Flopy version 3.6.0.dev0 on 02/07/2024 at 20:14:53.

Processing observation options:

Text output number of digits of precision set to: 10
The PRINT_INPUT option has been specified.


 OBSERVATIONS READ FROM FILE "case1-50.obs"
 ----------------------------------------------------------------------------------------------------------------------------------------------------------------------------------------------------------------------------
 NAME                                     TYPE                                       TIME         LOCATION DATA                              OUTPUT FILENAME                                                                 
 ----------------------------------------------------------------------------------------------------------------------------------------------------------------------------------------------------------------------------
 H1_1_2                                   CONTINUOUS  HEAD                           ALL TIMES    "  1 1 2"                                  gwf_obs.csv                                                                     
 ----------------------------------------------------------------------------------------------------------------------------------------------------------------------------------------------------------------------------


    BINARY GRID INFORMATION WILL BE WRITTEN TO:
      UNIT NUMBER: 1017
      FILE NAME: case1-50.dis.grb

 OPENED case1-50.dis.grb
 FILE TYPE:DATA(BINARY)   UNIT 1017   STATUS:REPLACE             
 FORMAT:UNFORMATTED            ACCESS:STREAM              
 ACTION:READWRITE           

      THE LAST TIME STEP WILL BE PRINTED
      THE LAST TIME STEP WILL BE PRINTED
 # File generated by Flopy version 3.6.0.dev0 on 02/07/2024 at 20:14:53.

 PROCESSING OC OPTIONS

 END OF OC OPTIONS

start timestep kper="1" kstp="1" mode="normal"


 BEGIN READING OUTPUT CONTROL FOR STRESS PERIOD 1
      ALL TIME STEPS WILL BE PRINTED

 END READING OUTPUT CONTROL FOR STRESS PERIOD 1


 PROCESSING STORAGE PERIOD DATA
 END PROCESSING STORAGE PERIOD DATA


 STRESS PERIOD 1 IS TRANSIENT


 REUSING CSUBS FROM LAST STRESS PERIOD

 CSUB PACKAGE CALCULATED INITIAL INTERBED STRESSES AT THE CELL BOTTOM
 ---------------------------------------------------------------------------------------------------------------------------
 INTERBED                                                          PRECONSOLIDATION                                         
 NUMBER            CELLID        GEOSTATIC STRESS EFFECTIVE STRESS      STRESS      BOUNDNAME                               
 ---------------------------------------------------------------------------------------------------------------------------
 1                (1,1,2)         2000.00000       1000.00000       990.000000      IB1                                     
 ---------------------------------------------------------------------------------------------------------------------------



 CSUB PACKAGE CALCULATED INITIAL DELAY INTERBED STRESSES
 --------------------------------------------------------------------------------------------------------------------------------------
 INTERBED                                                                     PRECONSOLIDATION                                         
 NUMBER            CELLID        DELAY CELL GEOSTATIC STRESS EFFECTIVE STRESS      STRESS      BOUNDNAME                               
 --------------------------------------------------------------------------------------------------------------------------------------
 1                (1,1,2)        1           1905.26316       942.631579       942.631579      IB1                                     
                                 2           1910.52632       945.263158       945.263158                                              
                                 3           1915.78947       947.894737       947.894737                                              
                                 4           1921.05263       950.526316       950.526316                                              
                                 5           1926.31579       953.157895       953.157895                                              
                                 6           1931.57895       955.789474       955.789474                                              
                                 7           1936.84211       958.421053       958.421053                                              
                                 8           1942.10526       961.052632       961.052632                                              
                                 9           1947.36842       963.684211       963.684211                                              
                                 10          1952.63158       966.315789       966.315789                                              
                                 11          1957.89474       968.947368       968.947368                                              
                                 12          1963.15789       971.578947       971.578947                                              
                                 13          1968.42105       974.210526       974.210526                                              
                                 14          1973.68421       976.842105       976.842105                                              
                                 15          1978.94737       979.473684       979.473684                                              
                                 16          1984.21053       982.105263       982.105263                                              
                                 17          1989.47368       984.736842       984.736842                                              
                                 18          1994.73684       987.368421       987.368421                                              
                                 19          2000.00000       990.000000       990.000000                                              
 --------------------------------------------------------------------------------------------------------------------------------------



 CSUB PACKAGE COMPRESSION INDICES
 ----------------------------------------------------------------------------------------------------------
 INTERBED                                                                                                  
 NUMBER            CELLID               CC               CR        BOUNDNAME                               
 ----------------------------------------------------------------------------------------------------------
 1                (1,1,2)         20.9326053       2.093260534E-02 IB1                                     
 ----------------------------------------------------------------------------------------------------------




  VOLUME BUDGET FOR ENTIRE MODEL AT END OF TIME STEP    1, STRESS PERIOD   1
  ---------------------------------------------------------------------------------------------------

     CUMULATIVE VOLUME      L**3       RATES FOR THIS TIME STEP      L**3/T          PACKAGE NAME    
     ------------------                 ------------------------                     ----------------

           IN:                                      IN:
           ---                                      ---
              STO-SS =           0.0000                STO-SS =           0.0000     STORAGE                          
      CSUB-CGELASTIC =           0.0000        CSUB-CGELASTIC =           0.0000     CSUB                             
        CSUB-ELASTIC =           0.0000          CSUB-ELASTIC =           0.0000     CSUB                             
      CSUB-INELASTIC =       5.7615E-03        CSUB-INELASTIC =       1.5038E-02     CSUB                             
      CSUB-WATERCOMP =           0.0000        CSUB-WATERCOMP =           0.0000     CSUB                             
                 CHD =           0.0000                   CHD =           0.0000     CHD_0                            

            TOTAL IN =       5.7615E-03              TOTAL IN =       1.5038E-02

          OUT:                                     OUT:
          ----                                     ----
              STO-SS =           0.0000                STO-SS =           0.0000     STORAGE                          
      CSUB-CGELASTIC =           0.0000        CSUB-CGELASTIC =           0.0000     CSUB                             
        CSUB-ELASTIC =           0.0000          CSUB-ELASTIC =           0.0000     CSUB                             
      CSUB-INELASTIC =           0.0000        CSUB-INELASTIC =           0.0000     CSUB                             
      CSUB-WATERCOMP =           0.0000        CSUB-WATERCOMP =           0.0000     CSUB                             
                 CHD =       5.7615E-03                   CHD =       1.5038E-02     CHD_0                            

           TOTAL OUT =       5.7615E-03             TOTAL OUT =       1.5038E-02

            IN - OUT =       3.3560E-11              IN - OUT =       8.7593E-11

 PERCENT DISCREPANCY =           0.00     PERCENT DISCREPANCY =           0.00




         TIME SUMMARY AT END OF TIME STEP    1 IN STRESS PERIOD    1
                    SECONDS     MINUTES      HOURS       DAYS        YEARS
                    -----------------------------------------------------------
   TIME STEP LENGTH  33103.      551.72      9.1953     0.38314     1.04897E-03
 STRESS PERIOD TIME  33103.      551.72      9.1953     0.38314     1.04897E-03
         TOTAL TIME  33103.      551.72      9.1953     0.38314     1.04897E-03


end timestep


start timestep kper="1" kstp="2" mode="normal"



  VOLUME BUDGET FOR ENTIRE MODEL AT END OF TIME STEP    2, STRESS PERIOD   1
  ---------------------------------------------------------------------------------------------------

     CUMULATIVE VOLUME      L**3       RATES FOR THIS TIME STEP      L**3/T          PACKAGE NAME    
     ------------------                 ------------------------                     ----------------

           IN:                                      IN:
           ---                                      ---
              STO-SS =           0.0000                STO-SS =           0.0000     STORAGE                          
      CSUB-CGELASTIC =           0.0000        CSUB-CGELASTIC =           0.0000     CSUB                             
        CSUB-ELASTIC =           0.0000          CSUB-ELASTIC =           0.0000     CSUB                             
      CSUB-INELASTIC =       1.1744E-02        CSUB-INELASTIC =       1.4870E-02     CSUB                             
      CSUB-WATERCOMP =           0.0000        CSUB-WATERCOMP =           0.0000     CSUB                             
                 CHD =           0.0000                   CHD =           0.0000     CHD_0                            

            TOTAL IN =       1.1744E-02              TOTAL IN =       1.4870E-02

          OUT:                                     OUT:
          ----                                     ----
              STO-SS =           0.0000                STO-SS =           0.0000     STORAGE                          
      CSUB-CGELASTIC =           0.0000        CSUB-CGELASTIC =           0.0000     CSUB                             
        CSUB-ELASTIC =           0.0000          CSUB-ELASTIC =           0.0000     CSUB                             
      CSUB-INELASTIC =           0.0000        CSUB-INELASTIC =           0.0000     CSUB                             
      CSUB-WATERCOMP =           0.0000        CSUB-WATERCOMP =           0.0000     CSUB                             
                 CHD =       1.1744E-02                   CHD =       1.4870E-02     CHD_0                            

           TOTAL OUT =       1.1744E-02             TOTAL OUT =       1.4870E-02

            IN - OUT =       6.7964E-11              IN - OUT =       8.5519E-11

 PERCENT DISCREPANCY =           0.00     PERCENT DISCREPANCY =           0.00




         TIME SUMMARY AT END OF TIME STEP    2 IN STRESS PERIOD    1
                    SECONDS     MINUTES      HOURS       DAYS        YEARS
                    -----------------------------------------------------------
   TIME STEP LENGTH  34758.      579.30      9.6551     0.40229     1.10142E-03
 STRESS PERIOD TIME  67861.      1131.0      18.850     0.78543     2.15040E-03
         TOTAL TIME  67861.      1131.0      18.850     0.78543     2.15040E-03


end timestep


start timestep kper="1" kstp="3" mode="normal"



  VOLUME BUDGET FOR ENTIRE MODEL AT END OF TIME STEP    3, STRESS PERIOD   1
  ---------------------------------------------------------------------------------------------------

     CUMULATIVE VOLUME      L**3       RATES FOR THIS TIME STEP      L**3/T          PACKAGE NAME    
     ------------------                 ------------------------                     ----------------

           IN:                                      IN:
           ---                                      ---
              STO-SS =           0.0000                STO-SS =           0.0000     STORAGE                          
      CSUB-CGELASTIC =           0.0000        CSUB-CGELASTIC =           0.0000     CSUB                             
        CSUB-ELASTIC =           0.0000          CSUB-ELASTIC =           0.0000     CSUB                             
      CSUB-INELASTIC =       1.7952E-02        CSUB-INELASTIC =       1.4697E-02     CSUB                             
      CSUB-WATERCOMP =           0.0000        CSUB-WATERCOMP =           0.0000     CSUB                             
                 CHD =           0.0000                   CHD =           0.0000     CHD_0                            

            TOTAL IN =       1.7952E-02              TOTAL IN =       1.4697E-02

          OUT:                                     OUT:
          ----                                     ----
              STO-SS =           0.0000                STO-SS =           0.0000     STORAGE                          
      CSUB-CGELASTIC =           0.0000        CSUB-CGELASTIC =           0.0000     CSUB                             
        CSUB-ELASTIC =           0.0000          CSUB-ELASTIC =           0.0000     CSUB                             
      CSUB-INELASTIC =           0.0000        CSUB-INELASTIC =           0.0000     CSUB                             
      CSUB-WATERCOMP =           0.0000        CSUB-WATERCOMP =           0.0000     CSUB                             
                 CHD =       1.7952E-02                   CHD =       1.4697E-02     CHD_0                            

           TOTAL OUT =       1.7952E-02             TOTAL OUT =       1.4697E-02

            IN - OUT =       1.0329E-10              IN - OUT =       8.3627E-11

 PERCENT DISCREPANCY =           0.00     PERCENT DISCREPANCY =           0.00




         TIME SUMMARY AT END OF TIME STEP    3 IN STRESS PERIOD    1
                    SECONDS     MINUTES      HOURS       DAYS        YEARS
                    -----------------------------------------------------------
   TIME STEP LENGTH  36496.      608.27      10.138     0.42241     1.15649E-03
 STRESS PERIOD TIME 1.04358E+05  1739.3      28.988      1.2078     3.30689E-03
         TOTAL TIME 1.04358E+05  1739.3      28.988      1.2078     3.30689E-03


end timestep


start timestep kper="1" kstp="4" mode="normal"



  VOLUME BUDGET FOR ENTIRE MODEL AT END OF TIME STEP    4, STRESS PERIOD   1
  ---------------------------------------------------------------------------------------------------

     CUMULATIVE VOLUME      L**3       RATES FOR THIS TIME STEP      L**3/T          PACKAGE NAME    
     ------------------                 ------------------------                     ----------------

           IN:                                      IN:
           ---                                      ---
              STO-SS =           0.0000                STO-SS =           0.0000     STORAGE                          
      CSUB-CGELASTIC =           0.0000        CSUB-CGELASTIC =           0.0000     CSUB                             
        CSUB-ELASTIC =           0.0000          CSUB-ELASTIC =           0.0000     CSUB                             
      CSUB-INELASTIC =       2.4392E-02        CSUB-INELASTIC =       1.4519E-02     CSUB                             
      CSUB-WATERCOMP =           0.0000        CSUB-WATERCOMP =           0.0000     CSUB                             
                 CHD =           0.0000                   CHD =           0.0000     CHD_0                            

            TOTAL IN =       2.4392E-02              TOTAL IN =       1.4519E-02

          OUT:                                     OUT:
          ----                                     ----
              STO-SS =           0.0000                STO-SS =           0.0000     STORAGE                          
      CSUB-CGELASTIC =           0.0000        CSUB-CGELASTIC =           0.0000     CSUB                             
        CSUB-ELASTIC =           0.0000          CSUB-ELASTIC =           0.0000     CSUB                             
      CSUB-INELASTIC =           0.0000        CSUB-INELASTIC =           0.0000     CSUB                             
      CSUB-WATERCOMP =           0.0000        CSUB-WATERCOMP =           0.0000     CSUB                             
                 CHD =       2.4392E-02                   CHD =       1.4519E-02     CHD_0                            

           TOTAL OUT =       2.4392E-02             TOTAL OUT =       1.4519E-02

            IN - OUT =       1.3961E-10              IN - OUT =       8.1882E-11

 PERCENT DISCREPANCY =           0.00     PERCENT DISCREPANCY =           0.00




         TIME SUMMARY AT END OF TIME STEP    4 IN STRESS PERIOD    1
                    SECONDS     MINUTES      HOURS       DAYS        YEARS
                    -----------------------------------------------------------
   TIME STEP LENGTH  38321.      638.68      10.645     0.44353     1.21432E-03
 STRESS PERIOD TIME 1.42679E+05  2378.0      39.633      1.6514     4.52121E-03
         TOTAL TIME 1.42679E+05  2378.0      39.633      1.6514     4.52121E-03


end timestep


start timestep kper="1" kstp="5" mode="normal"



  VOLUME BUDGET FOR ENTIRE MODEL AT END OF TIME STEP    5, STRESS PERIOD   1
  ---------------------------------------------------------------------------------------------------

     CUMULATIVE VOLUME      L**3       RATES FOR THIS TIME STEP      L**3/T          PACKAGE NAME    
     ------------------                 ------------------------                     ----------------

           IN:                                      IN:
           ---                                      ---
              STO-SS =           0.0000                STO-SS =           0.0000     STORAGE                          
      CSUB-CGELASTIC =           0.0000        CSUB-CGELASTIC =           0.0000     CSUB                             
        CSUB-ELASTIC =           0.0000          CSUB-ELASTIC =           0.0000     CSUB                             
      CSUB-INELASTIC =       3.1068E-02        CSUB-INELASTIC =       1.4336E-02     CSUB                             
      CSUB-WATERCOMP =           0.0000        CSUB-WATERCOMP =           0.0000     CSUB                             
                 CHD =           0.0000                   CHD =           0.0000     CHD_0                            

            TOTAL IN =       3.1068E-02              TOTAL IN =       1.4336E-02

          OUT:                                     OUT:
          ----                                     ----
              STO-SS =           0.0000                STO-SS =           0.0000     STORAGE                          
      CSUB-CGELASTIC =           0.0000        CSUB-CGELASTIC =           0.0000     CSUB                             
        CSUB-ELASTIC =           0.0000          CSUB-ELASTIC =           0.0000     CSUB                             
      CSUB-INELASTIC =           0.0000        CSUB-INELASTIC =           0.0000     CSUB                             
      CSUB-WATERCOMP =           0.0000        CSUB-WATERCOMP =           0.0000     CSUB                             
                 CHD =       3.1068E-02                   CHD =       1.4336E-02     CHD_0                            

           TOTAL OUT =       3.1068E-02             TOTAL OUT =       1.4336E-02

            IN - OUT =       1.7701E-10              IN - OUT =       8.0317E-11

 PERCENT DISCREPANCY =           0.00     PERCENT DISCREPANCY =           0.00




         TIME SUMMARY AT END OF TIME STEP    5 IN STRESS PERIOD    1
                    SECONDS     MINUTES      HOURS       DAYS        YEARS
                    -----------------------------------------------------------
   TIME STEP LENGTH  40237.      670.62      11.177     0.46571     1.27504E-03
 STRESS PERIOD TIME 1.82916E+05  3048.6      50.810      2.1171     5.79625E-03
         TOTAL TIME 1.82916E+05  3048.6      50.810      2.1171     5.79625E-03


end timestep


start timestep kper="1" kstp="6" mode="normal"



  VOLUME BUDGET FOR ENTIRE MODEL AT END OF TIME STEP    6, STRESS PERIOD   1
  ---------------------------------------------------------------------------------------------------

     CUMULATIVE VOLUME      L**3       RATES FOR THIS TIME STEP      L**3/T          PACKAGE NAME    
     ------------------                 ------------------------                     ----------------

           IN:                                      IN:
           ---                                      ---
              STO-SS =           0.0000                STO-SS =           0.0000     STORAGE                          
      CSUB-CGELASTIC =           0.0000        CSUB-CGELASTIC =           0.0000     CSUB                             
        CSUB-ELASTIC =           0.0000          CSUB-ELASTIC =           0.0000     CSUB                             
      CSUB-INELASTIC =       3.7986E-02        CSUB-INELASTIC =       1.4147E-02     CSUB                             
      CSUB-WATERCOMP =           0.0000        CSUB-WATERCOMP =           0.0000     CSUB                             
                 CHD =           0.0000                   CHD =           0.0000     CHD_0                            

            TOTAL IN =       3.7986E-02              TOTAL IN =       1.4147E-02

          OUT:                                     OUT:
          ----                                     ----
              STO-SS =           0.0000                STO-SS =           0.0000     STORAGE                          
      CSUB-CGELASTIC =           0.0000        CSUB-CGELASTIC =           0.0000     CSUB                             
        CSUB-ELASTIC =           0.0000          CSUB-ELASTIC =           0.0000     CSUB                             
      CSUB-INELASTIC =           0.0000        CSUB-INELASTIC =           0.0000     CSUB                             
      CSUB-WATERCOMP =           0.0000        CSUB-WATERCOMP =           0.0000     CSUB                             
                 CHD =       3.7986E-02                   CHD =       1.4147E-02     CHD_0                            

           TOTAL OUT =       3.7986E-02             TOTAL OUT =       1.4147E-02

            IN - OUT =       2.1560E-10              IN - OUT =       7.8925E-11

 PERCENT DISCREPANCY =           0.00     PERCENT DISCREPANCY =           0.00




         TIME SUMMARY AT END OF TIME STEP    6 IN STRESS PERIOD    1
                    SECONDS     MINUTES      HOURS       DAYS        YEARS
                    -----------------------------------------------------------
   TIME STEP LENGTH  42249.      704.15      11.736     0.48899     1.33879E-03
 STRESS PERIOD TIME 2.25165E+05  3752.7      62.546      2.6061     7.13504E-03
         TOTAL TIME 2.25165E+05  3752.7      62.546      2.6061     7.13504E-03


end timestep


start timestep kper="1" kstp="7" mode="normal"



  VOLUME BUDGET FOR ENTIRE MODEL AT END OF TIME STEP    7, STRESS PERIOD   1
  ---------------------------------------------------------------------------------------------------

     CUMULATIVE VOLUME      L**3       RATES FOR THIS TIME STEP      L**3/T          PACKAGE NAME    
     ------------------                 ------------------------                     ----------------

           IN:                                      IN:
           ---                                      ---
              STO-SS =           0.0000                STO-SS =           0.0000     STORAGE                          
      CSUB-CGELASTIC =           0.0000        CSUB-CGELASTIC =           0.0000     CSUB                             
        CSUB-ELASTIC =           0.0000          CSUB-ELASTIC =           0.0000     CSUB                             
      CSUB-INELASTIC =       4.5150E-02        CSUB-INELASTIC =       1.3953E-02     CSUB                             
      CSUB-WATERCOMP =           0.0000        CSUB-WATERCOMP =           0.0000     CSUB                             
                 CHD =           0.0000                   CHD =           0.0000     CHD_0                            

            TOTAL IN =       4.5150E-02              TOTAL IN =       1.3953E-02

          OUT:                                     OUT:
          ----                                     ----
              STO-SS =           0.0000                STO-SS =           0.0000     STORAGE                          
      CSUB-CGELASTIC =           0.0000        CSUB-CGELASTIC =           0.0000     CSUB                             
        CSUB-ELASTIC =           0.0000          CSUB-ELASTIC =           0.0000     CSUB                             
      CSUB-INELASTIC =           0.0000        CSUB-INELASTIC =           0.0000     CSUB                             
      CSUB-WATERCOMP =           0.0000        CSUB-WATERCOMP =           0.0000     CSUB                             
                 CHD =       4.5150E-02                   CHD =       1.3953E-02     CHD_0                            

           TOTAL OUT =       4.5150E-02             TOTAL OUT =       1.3953E-02

            IN - OUT =       2.5549E-10              IN - OUT =       7.7677E-11

 PERCENT DISCREPANCY =           0.00     PERCENT DISCREPANCY =           0.00




         TIME SUMMARY AT END OF TIME STEP    7 IN STRESS PERIOD    1
                    SECONDS     MINUTES      HOURS       DAYS        YEARS
                    -----------------------------------------------------------
   TIME STEP LENGTH  44361.      739.36      12.323     0.51344     1.40573E-03
 STRESS PERIOD TIME 2.69526E+05  4492.1      74.868      3.1195     8.54076E-03
         TOTAL TIME 2.69526E+05  4492.1      74.868      3.1195     8.54076E-03


end timestep


start timestep kper="1" kstp="8" mode="normal"



  VOLUME BUDGET FOR ENTIRE MODEL AT END OF TIME STEP    8, STRESS PERIOD   1
  ---------------------------------------------------------------------------------------------------

     CUMULATIVE VOLUME      L**3       RATES FOR THIS TIME STEP      L**3/T          PACKAGE NAME    
     ------------------                 ------------------------                     ----------------

           IN:                                      IN:
           ---                                      ---
              STO-SS =           0.0000                STO-SS =           0.0000     STORAGE                          
      CSUB-CGELASTIC =           0.0000        CSUB-CGELASTIC =           0.0000     CSUB                             
        CSUB-ELASTIC =           0.0000          CSUB-ELASTIC =           0.0000     CSUB                             
      CSUB-INELASTIC =       5.2564E-02        CSUB-INELASTIC =       1.3753E-02     CSUB                             
      CSUB-WATERCOMP =           0.0000        CSUB-WATERCOMP =           0.0000     CSUB                             
                 CHD =           0.0000                   CHD =           0.0000     CHD_0                            

            TOTAL IN =       5.2564E-02              TOTAL IN =       1.3753E-02

          OUT:                                     OUT:
          ----                                     ----
              STO-SS =           0.0000                STO-SS =           0.0000     STORAGE                          
      CSUB-CGELASTIC =           0.0000        CSUB-CGELASTIC =           0.0000     CSUB                             
        CSUB-ELASTIC =           0.0000          CSUB-ELASTIC =           0.0000     CSUB                             
      CSUB-INELASTIC =           0.0000        CSUB-INELASTIC =           0.0000     CSUB                             
      CSUB-WATERCOMP =           0.0000        CSUB-WATERCOMP =           0.0000     CSUB                             
                 CHD =       5.2564E-02                   CHD =       1.3753E-02     CHD_0                            

           TOTAL OUT =       5.2564E-02             TOTAL OUT =       1.3753E-02

            IN - OUT =       2.9678E-10              IN - OUT =       7.6589E-11

 PERCENT DISCREPANCY =           0.00     PERCENT DISCREPANCY =           0.00




         TIME SUMMARY AT END OF TIME STEP    8 IN STRESS PERIOD    1
                    SECONDS     MINUTES      HOURS       DAYS        YEARS
                    -----------------------------------------------------------
   TIME STEP LENGTH  46579.      776.32      12.939     0.53911     1.47601E-03
 STRESS PERIOD TIME 3.16105E+05  5268.4      87.807      3.6586     1.00168E-02
         TOTAL TIME 3.16105E+05  5268.4      87.807      3.6586     1.00168E-02


end timestep


start timestep kper="1" kstp="9" mode="normal"



  VOLUME BUDGET FOR ENTIRE MODEL AT END OF TIME STEP    9, STRESS PERIOD   1
  ---------------------------------------------------------------------------------------------------

     CUMULATIVE VOLUME      L**3       RATES FOR THIS TIME STEP      L**3/T          PACKAGE NAME    
     ------------------                 ------------------------                     ----------------

           IN:                                      IN:
           ---                                      ---
              STO-SS =           0.0000                STO-SS =           0.0000     STORAGE                          
      CSUB-CGELASTIC =           0.0000        CSUB-CGELASTIC =           0.0000     CSUB                             
        CSUB-ELASTIC =           0.0000          CSUB-ELASTIC =           0.0000     CSUB                             
      CSUB-INELASTIC =       6.0234E-02        CSUB-INELASTIC =       1.3549E-02     CSUB                             
      CSUB-WATERCOMP =           0.0000        CSUB-WATERCOMP =           0.0000     CSUB                             
                 CHD =           0.0000                   CHD =           0.0000     CHD_0                            

            TOTAL IN =       6.0234E-02              TOTAL IN =       1.3549E-02

          OUT:                                     OUT:
          ----                                     ----
              STO-SS =           0.0000                STO-SS =           0.0000     STORAGE                          
      CSUB-CGELASTIC =           0.0000        CSUB-CGELASTIC =           0.0000     CSUB                             
        CSUB-ELASTIC =           0.0000          CSUB-ELASTIC =           0.0000     CSUB                             
      CSUB-INELASTIC =           0.0000        CSUB-INELASTIC =           0.0000     CSUB                             
      CSUB-WATERCOMP =           0.0000        CSUB-WATERCOMP =           0.0000     CSUB                             
                 CHD =       6.0234E-02                   CHD =       1.3549E-02     CHD_0                            

           TOTAL OUT =       6.0234E-02             TOTAL OUT =       1.3549E-02

            IN - OUT =       3.3961E-10              IN - OUT =       7.5662E-11

 PERCENT DISCREPANCY =           0.00     PERCENT DISCREPANCY =           0.00




         TIME SUMMARY AT END OF TIME STEP    9 IN STRESS PERIOD    1
                    SECONDS     MINUTES      HOURS       DAYS        YEARS
                    -----------------------------------------------------------
   TIME STEP LENGTH  48908.      815.14      13.586     0.56607     1.54981E-03
 STRESS PERIOD TIME 3.65014E+05  6083.6      101.39      4.2247     1.15666E-02
         TOTAL TIME 3.65014E+05  6083.6      101.39      4.2247     1.15666E-02


end timestep


start timestep kper="1" kstp="10" mode="normal"



  VOLUME BUDGET FOR ENTIRE MODEL AT END OF TIME STEP   10, STRESS PERIOD   1
  ---------------------------------------------------------------------------------------------------

     CUMULATIVE VOLUME      L**3       RATES FOR THIS TIME STEP      L**3/T          PACKAGE NAME    
     ------------------                 ------------------------                     ----------------

           IN:                                      IN:
           ---                                      ---
              STO-SS =           0.0000                STO-SS =           0.0000     STORAGE                          
      CSUB-CGELASTIC =           0.0000        CSUB-CGELASTIC =           0.0000     CSUB                             
        CSUB-ELASTIC =           0.0000          CSUB-ELASTIC =           0.0000     CSUB                             
      CSUB-INELASTIC =       6.8162E-02        CSUB-INELASTIC =       1.3339E-02     CSUB                             
      CSUB-WATERCOMP =           0.0000        CSUB-WATERCOMP =           0.0000     CSUB                             
                 CHD =           0.0000                   CHD =           0.0000     CHD_0                            

            TOTAL IN =       6.8162E-02              TOTAL IN =       1.3339E-02

          OUT:                                     OUT:
          ----                                     ----
              STO-SS =           0.0000                STO-SS =           0.0000     STORAGE                          
      CSUB-CGELASTIC =           0.0000        CSUB-CGELASTIC =           0.0000     CSUB                             
        CSUB-ELASTIC =           0.0000          CSUB-ELASTIC =           0.0000     CSUB                             
      CSUB-INELASTIC =           0.0000        CSUB-INELASTIC =           0.0000     CSUB                             
      CSUB-WATERCOMP =           0.0000        CSUB-WATERCOMP =           0.0000     CSUB                             
                 CHD =       6.8162E-02                   CHD =       1.3339E-02     CHD_0                            

           TOTAL OUT =       6.8162E-02             TOTAL OUT =       1.3339E-02

            IN - OUT =       3.8411E-10              IN - OUT =       7.4881E-11

 PERCENT DISCREPANCY =           0.00     PERCENT DISCREPANCY =           0.00




         TIME SUMMARY AT END OF TIME STEP   10 IN STRESS PERIOD    1
                    SECONDS     MINUTES      HOURS       DAYS        YEARS
                    -----------------------------------------------------------
   TIME STEP LENGTH  51354.      855.90      14.265     0.59437     1.62730E-03
 STRESS PERIOD TIME 4.16368E+05  6939.5      115.66      4.8191     1.31939E-02
         TOTAL TIME 4.16368E+05  6939.5      115.66      4.8191     1.31939E-02


end timestep


start timestep kper="1" kstp="11" mode="normal"



  VOLUME BUDGET FOR ENTIRE MODEL AT END OF TIME STEP   11, STRESS PERIOD   1
  ---------------------------------------------------------------------------------------------------

     CUMULATIVE VOLUME      L**3       RATES FOR THIS TIME STEP      L**3/T          PACKAGE NAME    
     ------------------                 ------------------------                     ----------------

           IN:                                      IN:
           ---                                      ---
              STO-SS =           0.0000                STO-SS =           0.0000     STORAGE                          
      CSUB-CGELASTIC =           0.0000        CSUB-CGELASTIC =           0.0000     CSUB                             
        CSUB-ELASTIC =           0.0000          CSUB-ELASTIC =           0.0000     CSUB                             
      CSUB-INELASTIC =       7.6353E-02        CSUB-INELASTIC =       1.3124E-02     CSUB                             
      CSUB-WATERCOMP =           0.0000        CSUB-WATERCOMP =           0.0000     CSUB                             
                 CHD =           0.0000                   CHD =           0.0000     CHD_0                            

            TOTAL IN =       7.6353E-02              TOTAL IN =       1.3124E-02

          OUT:                                     OUT:
          ----                                     ----
              STO-SS =           0.0000                STO-SS =           0.0000     STORAGE                          
      CSUB-CGELASTIC =           0.0000        CSUB-CGELASTIC =           0.0000     CSUB                             
        CSUB-ELASTIC =           0.0000          CSUB-ELASTIC =           0.0000     CSUB                             
      CSUB-INELASTIC =           0.0000        CSUB-INELASTIC =           0.0000     CSUB                             
      CSUB-WATERCOMP =           0.0000        CSUB-WATERCOMP =           0.0000     CSUB                             
                 CHD =       7.6353E-02                   CHD =       1.3124E-02     CHD_0                            

           TOTAL OUT =       7.6353E-02             TOTAL OUT =       1.3124E-02

            IN - OUT =       4.3046E-10              IN - OUT =       7.4256E-11

 PERCENT DISCREPANCY =           0.00     PERCENT DISCREPANCY =           0.00




         TIME SUMMARY AT END OF TIME STEP   11 IN STRESS PERIOD    1
                    SECONDS     MINUTES      HOURS       DAYS        YEARS
                    -----------------------------------------------------------
   TIME STEP LENGTH  53922.      898.69      14.978     0.62409     1.70867E-03
 STRESS PERIOD TIME 4.70289E+05  7838.2      130.64      5.4432     1.49026E-02
         TOTAL TIME 4.70289E+05  7838.2      130.64      5.4432     1.49026E-02


end timestep


start timestep kper="1" kstp="12" mode="normal"



  VOLUME BUDGET FOR ENTIRE MODEL AT END OF TIME STEP   12, STRESS PERIOD   1
  ---------------------------------------------------------------------------------------------------

     CUMULATIVE VOLUME      L**3       RATES FOR THIS TIME STEP      L**3/T          PACKAGE NAME    
     ------------------                 ------------------------                     ----------------

           IN:                                      IN:
           ---                                      ---
              STO-SS =           0.0000                STO-SS =           0.0000     STORAGE                          
      CSUB-CGELASTIC =           0.0000        CSUB-CGELASTIC =           0.0000     CSUB                             
        CSUB-ELASTIC =           0.0000          CSUB-ELASTIC =           0.0000     CSUB                             
      CSUB-INELASTIC =       8.4809E-02        CSUB-INELASTIC =       1.2905E-02     CSUB                             
      CSUB-WATERCOMP =           0.0000        CSUB-WATERCOMP =           0.0000     CSUB                             
                 CHD =           0.0000                   CHD =           0.0000     CHD_0                            

            TOTAL IN =       8.4809E-02              TOTAL IN =       1.2905E-02

          OUT:                                     OUT:
          ----                                     ----
              STO-SS =           0.0000                STO-SS =           0.0000     STORAGE                          
      CSUB-CGELASTIC =           0.0000        CSUB-CGELASTIC =           0.0000     CSUB                             
        CSUB-ELASTIC =           0.0000          CSUB-ELASTIC =           0.0000     CSUB                             
      CSUB-INELASTIC =           0.0000        CSUB-INELASTIC =           0.0000     CSUB                             
      CSUB-WATERCOMP =           0.0000        CSUB-WATERCOMP =           0.0000     CSUB                             
                 CHD =       8.4809E-02                   CHD =       1.2905E-02     CHD_0                            

           TOTAL OUT =       8.4809E-02             TOTAL OUT =       1.2905E-02

            IN - OUT =       4.7881E-10              IN - OUT =       7.3789E-11

 PERCENT DISCREPANCY =           0.00     PERCENT DISCREPANCY =           0.00




         TIME SUMMARY AT END OF TIME STEP   12 IN STRESS PERIOD    1
                    SECONDS     MINUTES      HOURS       DAYS        YEARS
                    -----------------------------------------------------------
   TIME STEP LENGTH  56618.      943.63      15.727     0.65530     1.79410E-03
 STRESS PERIOD TIME 5.26907E+05  8781.8      146.36      6.0985     1.66967E-02
         TOTAL TIME 5.26907E+05  8781.8      146.36      6.0985     1.66967E-02


end timestep


start timestep kper="1" kstp="13" mode="normal"



  VOLUME BUDGET FOR ENTIRE MODEL AT END OF TIME STEP   13, STRESS PERIOD   1
  ---------------------------------------------------------------------------------------------------

     CUMULATIVE VOLUME      L**3       RATES FOR THIS TIME STEP      L**3/T          PACKAGE NAME    
     ------------------                 ------------------------                     ----------------

           IN:                                      IN:
           ---                                      ---
              STO-SS =           0.0000                STO-SS =           0.0000     STORAGE                          
      CSUB-CGELASTIC =           0.0000        CSUB-CGELASTIC =           0.0000     CSUB                             
        CSUB-ELASTIC =           0.0000          CSUB-ELASTIC =           0.0000     CSUB                             
      CSUB-INELASTIC =       9.3534E-02        CSUB-INELASTIC =       1.2680E-02     CSUB                             
      CSUB-WATERCOMP =           0.0000        CSUB-WATERCOMP =           0.0000     CSUB                             
                 CHD =           0.0000                   CHD =           0.0000     CHD_0                            

            TOTAL IN =       9.3534E-02              TOTAL IN =       1.2680E-02

          OUT:                                     OUT:
          ----                                     ----
              STO-SS =           0.0000                STO-SS =           0.0000     STORAGE                          
      CSUB-CGELASTIC =           0.0000        CSUB-CGELASTIC =           0.0000     CSUB                             
        CSUB-ELASTIC =           0.0000          CSUB-ELASTIC =           0.0000     CSUB                             
      CSUB-INELASTIC =           0.0000        CSUB-INELASTIC =           0.0000     CSUB                             
      CSUB-WATERCOMP =           0.0000        CSUB-WATERCOMP =           0.0000     CSUB                             
                 CHD =       9.3534E-02                   CHD =       1.2680E-02     CHD_0                            

           TOTAL OUT =       9.3534E-02             TOTAL OUT =       1.2680E-02

            IN - OUT =       5.2937E-10              IN - OUT =       7.3475E-11

 PERCENT DISCREPANCY =           0.00     PERCENT DISCREPANCY =           0.00




         TIME SUMMARY AT END OF TIME STEP   13 IN STRESS PERIOD    1
                    SECONDS     MINUTES      HOURS       DAYS        YEARS
                    -----------------------------------------------------------
   TIME STEP LENGTH  59448.      990.81      16.513     0.68806     1.88381E-03
 STRESS PERIOD TIME 5.86355E+05  9772.6      162.88      6.7865     1.85805E-02
         TOTAL TIME 5.86355E+05  9772.6      162.88      6.7865     1.85805E-02


end timestep


start timestep kper="1" kstp="14" mode="normal"



  VOLUME BUDGET FOR ENTIRE MODEL AT END OF TIME STEP   14, STRESS PERIOD   1
  ---------------------------------------------------------------------------------------------------

     CUMULATIVE VOLUME      L**3       RATES FOR THIS TIME STEP      L**3/T          PACKAGE NAME    
     ------------------                 ------------------------                     ----------------

           IN:                                      IN:
           ---                                      ---
              STO-SS =           0.0000                STO-SS =           0.0000     STORAGE                          
      CSUB-CGELASTIC =           0.0000        CSUB-CGELASTIC =           0.0000     CSUB                             
        CSUB-ELASTIC =           0.0000          CSUB-ELASTIC =           0.0000     CSUB                             
      CSUB-INELASTIC =           0.1025        CSUB-INELASTIC =       1.2452E-02     CSUB                             
      CSUB-WATERCOMP =           0.0000        CSUB-WATERCOMP =           0.0000     CSUB                             
                 CHD =           0.0000                   CHD =           0.0000     CHD_0                            

            TOTAL IN =           0.1025              TOTAL IN =       1.2452E-02

          OUT:                                     OUT:
          ----                                     ----
              STO-SS =           0.0000                STO-SS =           0.0000     STORAGE                          
      CSUB-CGELASTIC =           0.0000        CSUB-CGELASTIC =           0.0000     CSUB                             
        CSUB-ELASTIC =           0.0000          CSUB-ELASTIC =           0.0000     CSUB                             
      CSUB-INELASTIC =           0.0000        CSUB-INELASTIC =           0.0000     CSUB                             
      CSUB-WATERCOMP =           0.0000        CSUB-WATERCOMP =           0.0000     CSUB                             
                 CHD =           0.1025                   CHD =       1.2452E-02     CHD_0                            

           TOTAL OUT =           0.1025             TOTAL OUT =       1.2452E-02

            IN - OUT =       5.8233E-10              IN - OUT =       7.3310E-11

 PERCENT DISCREPANCY =           0.00     PERCENT DISCREPANCY =           0.00




         TIME SUMMARY AT END OF TIME STEP   14 IN STRESS PERIOD    1
                    SECONDS     MINUTES      HOURS       DAYS        YEARS
                    -----------------------------------------------------------
   TIME STEP LENGTH  62421.      1040.3      17.339     0.72246     1.97800E-03
 STRESS PERIOD TIME 6.48776E+05  10813.      180.22      7.5090     2.05585E-02
         TOTAL TIME 6.48776E+05  10813.      180.22      7.5090     2.05585E-02


end timestep


start timestep kper="1" kstp="15" mode="normal"



  VOLUME BUDGET FOR ENTIRE MODEL AT END OF TIME STEP   15, STRESS PERIOD   1
  ---------------------------------------------------------------------------------------------------

     CUMULATIVE VOLUME      L**3       RATES FOR THIS TIME STEP      L**3/T          PACKAGE NAME    
     ------------------                 ------------------------                     ----------------

           IN:                                      IN:
           ---                                      ---
              STO-SS =           0.0000                STO-SS =           0.0000     STORAGE                          
      CSUB-CGELASTIC =           0.0000        CSUB-CGELASTIC =           0.0000     CSUB                             
        CSUB-ELASTIC =           0.0000          CSUB-ELASTIC =           0.0000     CSUB                             
      CSUB-INELASTIC =           0.1118        CSUB-INELASTIC =       1.2219E-02     CSUB                             
      CSUB-WATERCOMP =           0.0000        CSUB-WATERCOMP =           0.0000     CSUB                             
                 CHD =           0.0000                   CHD =           0.0000     CHD_0                            

            TOTAL IN =           0.1118              TOTAL IN =       1.2219E-02

          OUT:                                     OUT:
          ----                                     ----
              STO-SS =           0.0000                STO-SS =           0.0000     STORAGE                          
      CSUB-CGELASTIC =           0.0000        CSUB-CGELASTIC =           0.0000     CSUB                             
        CSUB-ELASTIC =           0.0000          CSUB-ELASTIC =           0.0000     CSUB                             
      CSUB-INELASTIC =           0.0000        CSUB-INELASTIC =           0.0000     CSUB                             
      CSUB-WATERCOMP =           0.0000        CSUB-WATERCOMP =           0.0000     CSUB                             
                 CHD =           0.1118                   CHD =       1.2219E-02     CHD_0                            

           TOTAL OUT =           0.1118             TOTAL OUT =       1.2219E-02

            IN - OUT =       6.3794E-10              IN - OUT =       7.3312E-11

 PERCENT DISCREPANCY =           0.00     PERCENT DISCREPANCY =           0.00




         TIME SUMMARY AT END OF TIME STEP   15 IN STRESS PERIOD    1
                    SECONDS     MINUTES      HOURS       DAYS        YEARS
                    -----------------------------------------------------------
   TIME STEP LENGTH  65542.      1092.4      18.206     0.75859     2.07690E-03
 STRESS PERIOD TIME 7.14318E+05  11905.      198.42      8.2676     2.26354E-02
         TOTAL TIME 7.14318E+05  11905.      198.42      8.2676     2.26354E-02


end timestep


start timestep kper="1" kstp="16" mode="normal"



  VOLUME BUDGET FOR ENTIRE MODEL AT END OF TIME STEP   16, STRESS PERIOD   1
  ---------------------------------------------------------------------------------------------------

     CUMULATIVE VOLUME      L**3       RATES FOR THIS TIME STEP      L**3/T          PACKAGE NAME    
     ------------------                 ------------------------                     ----------------

           IN:                                      IN:
           ---                                      ---
              STO-SS =           0.0000                STO-SS =           0.0000     STORAGE                          
      CSUB-CGELASTIC =           0.0000        CSUB-CGELASTIC =           0.0000     CSUB                             
        CSUB-ELASTIC =           0.0000          CSUB-ELASTIC =           0.0000     CSUB                             
      CSUB-INELASTIC =           0.1213        CSUB-INELASTIC =       1.1982E-02     CSUB                             
      CSUB-WATERCOMP =           0.0000        CSUB-WATERCOMP =           0.0000     CSUB                             
                 CHD =           0.0000                   CHD =           0.0000     CHD_0                            

            TOTAL IN =           0.1213              TOTAL IN =       1.1982E-02

          OUT:                                     OUT:
          ----                                     ----
              STO-SS =           0.0000                STO-SS =           0.0000     STORAGE                          
      CSUB-CGELASTIC =           0.0000        CSUB-CGELASTIC =           0.0000     CSUB                             
        CSUB-ELASTIC =           0.0000          CSUB-ELASTIC =           0.0000     CSUB                             
      CSUB-INELASTIC =           0.0000        CSUB-INELASTIC =           0.0000     CSUB                             
      CSUB-WATERCOMP =           0.0000        CSUB-WATERCOMP =           0.0000     CSUB                             
                 CHD =           0.1213                   CHD =       1.1982E-02     CHD_0                            

           TOTAL OUT =           0.1213             TOTAL OUT =       1.1982E-02

            IN - OUT =       6.9647E-10              IN - OUT =       7.3480E-11

 PERCENT DISCREPANCY =           0.00     PERCENT DISCREPANCY =           0.00




         TIME SUMMARY AT END OF TIME STEP   16 IN STRESS PERIOD    1
                    SECONDS     MINUTES      HOURS       DAYS        YEARS
                    -----------------------------------------------------------
   TIME STEP LENGTH  68819.      1147.0      19.116     0.79652     2.18074E-03
 STRESS PERIOD TIME 7.83137E+05  13052.      217.54      9.0641     2.48161E-02
         TOTAL TIME 7.83137E+05  13052.      217.54      9.0641     2.48161E-02


end timestep


start timestep kper="1" kstp="17" mode="normal"



  VOLUME BUDGET FOR ENTIRE MODEL AT END OF TIME STEP   17, STRESS PERIOD   1
  ---------------------------------------------------------------------------------------------------

     CUMULATIVE VOLUME      L**3       RATES FOR THIS TIME STEP      L**3/T          PACKAGE NAME    
     ------------------                 ------------------------                     ----------------

           IN:                                      IN:
           ---                                      ---
              STO-SS =           0.0000                STO-SS =           0.0000     STORAGE                          
      CSUB-CGELASTIC =           0.0000        CSUB-CGELASTIC =           0.0000     CSUB                             
        CSUB-ELASTIC =           0.0000          CSUB-ELASTIC =           0.0000     CSUB                             
      CSUB-INELASTIC =           0.1312        CSUB-INELASTIC =       1.1741E-02     CSUB                             
      CSUB-WATERCOMP =           0.0000        CSUB-WATERCOMP =           0.0000     CSUB                             
                 CHD =           0.0000                   CHD =           0.0000     CHD_0                            

            TOTAL IN =           0.1312              TOTAL IN =       1.1741E-02

          OUT:                                     OUT:
          ----                                     ----
              STO-SS =           0.0000                STO-SS =           0.0000     STORAGE                          
      CSUB-CGELASTIC =           0.0000        CSUB-CGELASTIC =           0.0000     CSUB                             
        CSUB-ELASTIC =           0.0000          CSUB-ELASTIC =           0.0000     CSUB                             
      CSUB-INELASTIC =           0.0000        CSUB-INELASTIC =           0.0000     CSUB                             
      CSUB-WATERCOMP =           0.0000        CSUB-WATERCOMP =           0.0000     CSUB                             
                 CHD =           0.1312                   CHD =       1.1741E-02     CHD_0                            

           TOTAL OUT =           0.1312             TOTAL OUT =       1.1741E-02

            IN - OUT =       7.5819E-10              IN - OUT =       7.3800E-11

 PERCENT DISCREPANCY =           0.00     PERCENT DISCREPANCY =           0.00




         TIME SUMMARY AT END OF TIME STEP   17 IN STRESS PERIOD    1
                    SECONDS     MINUTES      HOURS       DAYS        YEARS
                    -----------------------------------------------------------
   TIME STEP LENGTH  72260.      1204.3      20.072     0.83634     2.28978E-03
 STRESS PERIOD TIME 8.55397E+05  14257.      237.61      9.9004     2.71059E-02
         TOTAL TIME 8.55397E+05  14257.      237.61      9.9004     2.71059E-02


end timestep


start timestep kper="1" kstp="18" mode="normal"



  VOLUME BUDGET FOR ENTIRE MODEL AT END OF TIME STEP   18, STRESS PERIOD   1
  ---------------------------------------------------------------------------------------------------

     CUMULATIVE VOLUME      L**3       RATES FOR THIS TIME STEP      L**3/T          PACKAGE NAME    
     ------------------                 ------------------------                     ----------------

           IN:                                      IN:
           ---                                      ---
              STO-SS =           0.0000                STO-SS =           0.0000     STORAGE                          
      CSUB-CGELASTIC =           0.0000        CSUB-CGELASTIC =           0.0000     CSUB                             
        CSUB-ELASTIC =           0.0000          CSUB-ELASTIC =           0.0000     CSUB                             
      CSUB-INELASTIC =           0.1413        CSUB-INELASTIC =       1.1497E-02     CSUB                             
      CSUB-WATERCOMP =           0.0000        CSUB-WATERCOMP =           0.0000     CSUB                             
                 CHD =           0.0000                   CHD =           0.0000     CHD_0                            

            TOTAL IN =           0.1413              TOTAL IN =       1.1497E-02

          OUT:                                     OUT:
          ----                                     ----
              STO-SS =           0.0000                STO-SS =           0.0000     STORAGE                          
      CSUB-CGELASTIC =           0.0000        CSUB-CGELASTIC =           0.0000     CSUB                             
        CSUB-ELASTIC =           0.0000          CSUB-ELASTIC =           0.0000     CSUB                             
      CSUB-INELASTIC =           0.0000        CSUB-INELASTIC =           0.0000     CSUB                             
      CSUB-WATERCOMP =           0.0000        CSUB-WATERCOMP =           0.0000     CSUB                             
                 CHD =           0.1413                   CHD =       1.1497E-02     CHD_0                            

           TOTAL OUT =           0.1413             TOTAL OUT =       1.1497E-02

            IN - OUT =       8.2346E-10              IN - OUT =       7.4318E-11

 PERCENT DISCREPANCY =           0.00     PERCENT DISCREPANCY =           0.00




         TIME SUMMARY AT END OF TIME STEP   18 IN STRESS PERIOD    1
                    SECONDS     MINUTES      HOURS       DAYS        YEARS
                    -----------------------------------------------------------
   TIME STEP LENGTH  75873.      1264.5      21.076     0.87816     2.40427E-03
 STRESS PERIOD TIME 9.31270E+05  15521.      258.69      10.779     2.95102E-02
         TOTAL TIME 9.31270E+05  15521.      258.69      10.779     2.95102E-02


end timestep


start timestep kper="1" kstp="19" mode="normal"



  VOLUME BUDGET FOR ENTIRE MODEL AT END OF TIME STEP   19, STRESS PERIOD   1
  ---------------------------------------------------------------------------------------------------

     CUMULATIVE VOLUME      L**3       RATES FOR THIS TIME STEP      L**3/T          PACKAGE NAME    
     ------------------                 ------------------------                     ----------------

           IN:                                      IN:
           ---                                      ---
              STO-SS =           0.0000                STO-SS =           0.0000     STORAGE                          
      CSUB-CGELASTIC =           0.0000        CSUB-CGELASTIC =           0.0000     CSUB                             
        CSUB-ELASTIC =           0.0000          CSUB-ELASTIC =           0.0000     CSUB                             
      CSUB-INELASTIC =           0.1516        CSUB-INELASTIC =       1.1249E-02     CSUB                             
      CSUB-WATERCOMP =           0.0000        CSUB-WATERCOMP =           0.0000     CSUB                             
                 CHD =           0.0000                   CHD =           0.0000     CHD_0                            

            TOTAL IN =           0.1516              TOTAL IN =       1.1249E-02

          OUT:                                     OUT:
          ----                                     ----
              STO-SS =           0.0000                STO-SS =           0.0000     STORAGE                          
      CSUB-CGELASTIC =           0.0000        CSUB-CGELASTIC =           0.0000     CSUB                             
        CSUB-ELASTIC =           0.0000          CSUB-ELASTIC =           0.0000     CSUB                             
      CSUB-INELASTIC =           0.0000        CSUB-INELASTIC =           0.0000     CSUB                             
      CSUB-WATERCOMP =           0.0000        CSUB-WATERCOMP =           0.0000     CSUB                             
                 CHD =           0.1516                   CHD =       1.1249E-02     CHD_0                            

           TOTAL OUT =           0.1516             TOTAL OUT =       1.1249E-02

            IN - OUT =       8.9261E-10              IN - OUT =       7.5003E-11

 PERCENT DISCREPANCY =           0.00     PERCENT DISCREPANCY =           0.00




         TIME SUMMARY AT END OF TIME STEP   19 IN STRESS PERIOD    1
                    SECONDS     MINUTES      HOURS       DAYS        YEARS
                    -----------------------------------------------------------
   TIME STEP LENGTH  79667.      1327.8      22.130     0.92207     2.52448E-03
 STRESS PERIOD TIME 1.01094E+06  16849.      280.82      11.701     3.20346E-02
         TOTAL TIME 1.01094E+06  16849.      280.82      11.701     3.20346E-02


end timestep


start timestep kper="1" kstp="20" mode="normal"



  VOLUME BUDGET FOR ENTIRE MODEL AT END OF TIME STEP   20, STRESS PERIOD   1
  ---------------------------------------------------------------------------------------------------

     CUMULATIVE VOLUME      L**3       RATES FOR THIS TIME STEP      L**3/T          PACKAGE NAME    
     ------------------                 ------------------------                     ----------------

           IN:                                      IN:
           ---                                      ---
              STO-SS =           0.0000                STO-SS =           0.0000     STORAGE                          
      CSUB-CGELASTIC =           0.0000        CSUB-CGELASTIC =           0.0000     CSUB                             
        CSUB-ELASTIC =           0.0000          CSUB-ELASTIC =           0.0000     CSUB                             
      CSUB-INELASTIC =           0.1623        CSUB-INELASTIC =       1.0999E-02     CSUB                             
      CSUB-WATERCOMP =           0.0000        CSUB-WATERCOMP =           0.0000     CSUB                             
                 CHD =           0.0000                   CHD =           0.0000     CHD_0                            

            TOTAL IN =           0.1623              TOTAL IN =       1.0999E-02

          OUT:                                     OUT:
          ----                                     ----
              STO-SS =           0.0000                STO-SS =           0.0000     STORAGE                          
      CSUB-CGELASTIC =           0.0000        CSUB-CGELASTIC =           0.0000     CSUB                             
        CSUB-ELASTIC =           0.0000          CSUB-ELASTIC =           0.0000     CSUB                             
      CSUB-INELASTIC =           0.0000        CSUB-INELASTIC =           0.0000     CSUB                             
      CSUB-WATERCOMP =           0.0000        CSUB-WATERCOMP =           0.0000     CSUB                             
[...]
          ----                                     ----
              STO-SS =           0.0000                STO-SS =           0.0000     STORAGE                          
      CSUB-CGELASTIC =           0.0000        CSUB-CGELASTIC =           0.0000     CSUB                             
        CSUB-ELASTIC =           0.0000          CSUB-ELASTIC =           0.0000     CSUB                             
      CSUB-INELASTIC =           0.0000        CSUB-INELASTIC =           0.0000     CSUB                             
      CSUB-WATERCOMP =           0.0000        CSUB-WATERCOMP =           0.0000     CSUB                             
                 CHD =           1.9430                   CHD =       1.3367E-03     CHD_0                            

           TOTAL OUT =           1.9430             TOTAL OUT =       1.3367E-03

            IN - OUT =       7.5108E-07              IN - OUT =       1.5438E-09

 PERCENT DISCREPANCY =           0.00     PERCENT DISCREPANCY =           0.00




         TIME SUMMARY AT END OF TIME STEP   94 IN STRESS PERIOD    1
                    SECONDS     MINUTES      HOURS       DAYS        YEARS
                    -----------------------------------------------------------
   TIME STEP LENGTH 3.09367E+06  51561.      859.35      35.806     9.80325E-02
 STRESS PERIOD TIME 6.43050E+07 1.07175E+06  17862.      744.27      2.0377    
         TOTAL TIME 6.43050E+07 1.07175E+06  17862.      744.27      2.0377    


end timestep


start timestep kper="1" kstp="95" mode="normal"



  VOLUME BUDGET FOR ENTIRE MODEL AT END OF TIME STEP   95, STRESS PERIOD   1
  ---------------------------------------------------------------------------------------------------

     CUMULATIVE VOLUME      L**3       RATES FOR THIS TIME STEP      L**3/T          PACKAGE NAME    
     ------------------                 ------------------------                     ----------------

           IN:                                      IN:
           ---                                      ---
              STO-SS =           0.0000                STO-SS =           0.0000     STORAGE                          
      CSUB-CGELASTIC =           0.0000        CSUB-CGELASTIC =           0.0000     CSUB                             
        CSUB-ELASTIC =           0.0000          CSUB-ELASTIC =           0.0000     CSUB                             
      CSUB-INELASTIC =           1.9920        CSUB-INELASTIC =       1.3034E-03     CSUB                             
      CSUB-WATERCOMP =           0.0000        CSUB-WATERCOMP =           0.0000     CSUB                             
                 CHD =           0.0000                   CHD =           0.0000     CHD_0                            

            TOTAL IN =           1.9920              TOTAL IN =       1.3034E-03

          OUT:                                     OUT:
          ----                                     ----
              STO-SS =           0.0000                STO-SS =           0.0000     STORAGE                          
      CSUB-CGELASTIC =           0.0000        CSUB-CGELASTIC =           0.0000     CSUB                             
        CSUB-ELASTIC =           0.0000          CSUB-ELASTIC =           0.0000     CSUB                             
      CSUB-INELASTIC =           0.0000        CSUB-INELASTIC =           0.0000     CSUB                             
      CSUB-WATERCOMP =           0.0000        CSUB-WATERCOMP =           0.0000     CSUB                             
                 CHD =           1.9920                   CHD =       1.3034E-03     CHD_0                            

           TOTAL OUT =           1.9920             TOTAL OUT =       1.3034E-03

            IN - OUT =       8.1024E-07              IN - OUT =       1.5736E-09

 PERCENT DISCREPANCY =           0.00     PERCENT DISCREPANCY =           0.00




         TIME SUMMARY AT END OF TIME STEP   95 IN STRESS PERIOD    1
                    SECONDS     MINUTES      HOURS       DAYS        YEARS
                    -----------------------------------------------------------
   TIME STEP LENGTH 3.24835E+06  54139.      902.32      37.597     0.10293    
 STRESS PERIOD TIME 6.75533E+07 1.12589E+06  18765.      781.87      2.1406    
         TOTAL TIME 6.75533E+07 1.12589E+06  18765.      781.87      2.1406    


end timestep


start timestep kper="1" kstp="96" mode="normal"



  VOLUME BUDGET FOR ENTIRE MODEL AT END OF TIME STEP   96, STRESS PERIOD   1
  ---------------------------------------------------------------------------------------------------

     CUMULATIVE VOLUME      L**3       RATES FOR THIS TIME STEP      L**3/T          PACKAGE NAME    
     ------------------                 ------------------------                     ----------------

           IN:                                      IN:
           ---                                      ---
              STO-SS =           0.0000                STO-SS =           0.0000     STORAGE                          
      CSUB-CGELASTIC =           0.0000        CSUB-CGELASTIC =           0.0000     CSUB                             
        CSUB-ELASTIC =           0.0000          CSUB-ELASTIC =           0.0000     CSUB                             
      CSUB-INELASTIC =           2.0422        CSUB-INELASTIC =       1.2707E-03     CSUB                             
      CSUB-WATERCOMP =           0.0000        CSUB-WATERCOMP =           0.0000     CSUB                             
                 CHD =           0.0000                   CHD =           0.0000     CHD_0                            

            TOTAL IN =           2.0422              TOTAL IN =       1.2707E-03

          OUT:                                     OUT:
          ----                                     ----
              STO-SS =           0.0000                STO-SS =           0.0000     STORAGE                          
      CSUB-CGELASTIC =           0.0000        CSUB-CGELASTIC =           0.0000     CSUB                             
        CSUB-ELASTIC =           0.0000          CSUB-ELASTIC =           0.0000     CSUB                             
      CSUB-INELASTIC =           0.0000        CSUB-INELASTIC =           0.0000     CSUB                             
      CSUB-WATERCOMP =           0.0000        CSUB-WATERCOMP =           0.0000     CSUB                             
                 CHD =           2.0422                   CHD =       1.2707E-03     CHD_0                            

           TOTAL OUT =           2.0422             TOTAL OUT =       1.2707E-03

            IN - OUT =       8.7349E-07              IN - OUT =       1.6023E-09

 PERCENT DISCREPANCY =           0.00     PERCENT DISCREPANCY =           0.00




         TIME SUMMARY AT END OF TIME STEP   96 IN STRESS PERIOD    1
                    SECONDS     MINUTES      HOURS       DAYS        YEARS
                    -----------------------------------------------------------
   TIME STEP LENGTH 3.41077E+06  56846.      947.44      39.477     0.10808    
 STRESS PERIOD TIME 7.09641E+07 1.18274E+06  19712.      821.34      2.2487    
         TOTAL TIME 7.09641E+07 1.18274E+06  19712.      821.34      2.2487    


end timestep


start timestep kper="1" kstp="97" mode="normal"



  VOLUME BUDGET FOR ENTIRE MODEL AT END OF TIME STEP   97, STRESS PERIOD   1
  ---------------------------------------------------------------------------------------------------

     CUMULATIVE VOLUME      L**3       RATES FOR THIS TIME STEP      L**3/T          PACKAGE NAME    
     ------------------                 ------------------------                     ----------------

           IN:                                      IN:
           ---                                      ---
              STO-SS =           0.0000                STO-SS =           0.0000     STORAGE                          
      CSUB-CGELASTIC =           0.0000        CSUB-CGELASTIC =           0.0000     CSUB                             
        CSUB-ELASTIC =           0.0000          CSUB-ELASTIC =           0.0000     CSUB                             
      CSUB-INELASTIC =           2.0935        CSUB-INELASTIC =       1.2388E-03     CSUB                             
      CSUB-WATERCOMP =           0.0000        CSUB-WATERCOMP =           0.0000     CSUB                             
                 CHD =           0.0000                   CHD =           0.0000     CHD_0                            

            TOTAL IN =           2.0935              TOTAL IN =       1.2388E-03

          OUT:                                     OUT:
          ----                                     ----
              STO-SS =           0.0000                STO-SS =           0.0000     STORAGE                          
      CSUB-CGELASTIC =           0.0000        CSUB-CGELASTIC =           0.0000     CSUB                             
        CSUB-ELASTIC =           0.0000          CSUB-ELASTIC =           0.0000     CSUB                             
      CSUB-INELASTIC =           0.0000        CSUB-INELASTIC =           0.0000     CSUB                             
      CSUB-WATERCOMP =           0.0000        CSUB-WATERCOMP =           0.0000     CSUB                             
                 CHD =           2.0935                   CHD =       1.2388E-03     CHD_0                            

           TOTAL OUT =           2.0935             TOTAL OUT =       1.2388E-03

            IN - OUT =       9.4104E-07              IN - OUT =       1.6296E-09

 PERCENT DISCREPANCY =           0.00     PERCENT DISCREPANCY =           0.00




         TIME SUMMARY AT END OF TIME STEP   97 IN STRESS PERIOD    1
                    SECONDS     MINUTES      HOURS       DAYS        YEARS
                    -----------------------------------------------------------
   TIME STEP LENGTH 3.58131E+06  59688.      994.81      41.450     0.11348    
 STRESS PERIOD TIME 7.45454E+07 1.24242E+06  20707.      862.79      2.3622    
         TOTAL TIME 7.45454E+07 1.24242E+06  20707.      862.79      2.3622    


end timestep


start timestep kper="1" kstp="98" mode="normal"



  VOLUME BUDGET FOR ENTIRE MODEL AT END OF TIME STEP   98, STRESS PERIOD   1
  ---------------------------------------------------------------------------------------------------

     CUMULATIVE VOLUME      L**3       RATES FOR THIS TIME STEP      L**3/T          PACKAGE NAME    
     ------------------                 ------------------------                     ----------------

           IN:                                      IN:
           ---                                      ---
              STO-SS =           0.0000                STO-SS =           0.0000     STORAGE                          
      CSUB-CGELASTIC =           0.0000        CSUB-CGELASTIC =           0.0000     CSUB                             
        CSUB-ELASTIC =           0.0000          CSUB-ELASTIC =           0.0000     CSUB                             
      CSUB-INELASTIC =           2.1461        CSUB-INELASTIC =       1.2075E-03     CSUB                             
      CSUB-WATERCOMP =           0.0000        CSUB-WATERCOMP =           0.0000     CSUB                             
                 CHD =           0.0000                   CHD =           0.0000     CHD_0                            

            TOTAL IN =           2.1461              TOTAL IN =       1.2075E-03

          OUT:                                     OUT:
          ----                                     ----
              STO-SS =           0.0000                STO-SS =           0.0000     STORAGE                          
      CSUB-CGELASTIC =           0.0000        CSUB-CGELASTIC =           0.0000     CSUB                             
        CSUB-ELASTIC =           0.0000          CSUB-ELASTIC =           0.0000     CSUB                             
      CSUB-INELASTIC =           0.0000        CSUB-INELASTIC =           0.0000     CSUB                             
      CSUB-WATERCOMP =           0.0000        CSUB-WATERCOMP =           0.0000     CSUB                             
                 CHD =           2.1461                   CHD =       1.2075E-03     CHD_0                            

           TOTAL OUT =           2.1461             TOTAL OUT =       1.2075E-03

            IN - OUT =       1.0131E-06              IN - OUT =       1.6554E-09

 PERCENT DISCREPANCY =           0.00     PERCENT DISCREPANCY =           0.00




         TIME SUMMARY AT END OF TIME STEP   98 IN STRESS PERIOD    1
                    SECONDS     MINUTES      HOURS       DAYS        YEARS
                    -----------------------------------------------------------
   TIME STEP LENGTH 3.76037E+06  62673.      1044.5      43.523     0.11916    
 STRESS PERIOD TIME 7.83058E+07 1.30510E+06  21752.      906.32      2.4814    
         TOTAL TIME 7.83058E+07 1.30510E+06  21752.      906.32      2.4814    


end timestep


start timestep kper="1" kstp="99" mode="normal"



  VOLUME BUDGET FOR ENTIRE MODEL AT END OF TIME STEP   99, STRESS PERIOD   1
  ---------------------------------------------------------------------------------------------------

     CUMULATIVE VOLUME      L**3       RATES FOR THIS TIME STEP      L**3/T          PACKAGE NAME    
     ------------------                 ------------------------                     ----------------

           IN:                                      IN:
           ---                                      ---
              STO-SS =           0.0000                STO-SS =           0.0000     STORAGE                          
      CSUB-CGELASTIC =           0.0000        CSUB-CGELASTIC =           0.0000     CSUB                             
        CSUB-ELASTIC =           0.0000          CSUB-ELASTIC =           0.0000     CSUB                             
      CSUB-INELASTIC =           2.1999        CSUB-INELASTIC =       1.1768E-03     CSUB                             
      CSUB-WATERCOMP =           0.0000        CSUB-WATERCOMP =           0.0000     CSUB                             
                 CHD =           0.0000                   CHD =           0.0000     CHD_0                            

            TOTAL IN =           2.1999              TOTAL IN =       1.1768E-03

          OUT:                                     OUT:
          ----                                     ----
              STO-SS =           0.0000                STO-SS =           0.0000     STORAGE                          
      CSUB-CGELASTIC =           0.0000        CSUB-CGELASTIC =           0.0000     CSUB                             
        CSUB-ELASTIC =           0.0000          CSUB-ELASTIC =           0.0000     CSUB                             
      CSUB-INELASTIC =           0.0000        CSUB-INELASTIC =           0.0000     CSUB                             
      CSUB-WATERCOMP =           0.0000        CSUB-WATERCOMP =           0.0000     CSUB                             
                 CHD =           2.1999                   CHD =       1.1768E-03     CHD_0                            

           TOTAL OUT =           2.1999             TOTAL OUT =       1.1768E-03

            IN - OUT =       1.0898E-06              IN - OUT =       1.6793E-09

 PERCENT DISCREPANCY =           0.00     PERCENT DISCREPANCY =           0.00




         TIME SUMMARY AT END OF TIME STEP   99 IN STRESS PERIOD    1
                    SECONDS     MINUTES      HOURS       DAYS        YEARS
                    -----------------------------------------------------------
   TIME STEP LENGTH 3.94839E+06  65807.      1096.8      45.699     0.12512    
 STRESS PERIOD TIME 8.22542E+07 1.37090E+06  22848.      952.02      2.6065    
         TOTAL TIME 8.22542E+07 1.37090E+06  22848.      952.02      2.6065    


end timestep


start timestep kper="1" kstp="100" mode="normal"



  VOLUME BUDGET FOR ENTIRE MODEL AT END OF TIME STEP  100, STRESS PERIOD   1
  ---------------------------------------------------------------------------------------------------

     CUMULATIVE VOLUME      L**3       RATES FOR THIS TIME STEP      L**3/T          PACKAGE NAME    
     ------------------                 ------------------------                     ----------------

           IN:                                      IN:
           ---                                      ---
              STO-SS =           0.0000                STO-SS =           0.0000     STORAGE                          
      CSUB-CGELASTIC =           0.0000        CSUB-CGELASTIC =           0.0000     CSUB                             
        CSUB-ELASTIC =           0.0000          CSUB-ELASTIC =           0.0000     CSUB                             
      CSUB-INELASTIC =           2.2549        CSUB-INELASTIC =       1.1466E-03     CSUB                             
      CSUB-WATERCOMP =           0.0000        CSUB-WATERCOMP =           0.0000     CSUB                             
                 CHD =           0.0000                   CHD =           0.0000     CHD_0                            

            TOTAL IN =           2.2549              TOTAL IN =       1.1466E-03

          OUT:                                     OUT:
          ----                                     ----
              STO-SS =           0.0000                STO-SS =           0.0000     STORAGE                          
      CSUB-CGELASTIC =           0.0000        CSUB-CGELASTIC =           0.0000     CSUB                             
        CSUB-ELASTIC =           0.0000          CSUB-ELASTIC =           0.0000     CSUB                             
      CSUB-INELASTIC =           0.0000        CSUB-INELASTIC =           0.0000     CSUB                             
      CSUB-WATERCOMP =           0.0000        CSUB-WATERCOMP =           0.0000     CSUB                             
                 CHD =           2.2549                   CHD =       1.1466E-03     CHD_0                            

           TOTAL OUT =           2.2549             TOTAL OUT =       1.1466E-03

            IN - OUT =       1.1715E-06              IN - OUT =       1.7012E-09

 PERCENT DISCREPANCY =           0.00     PERCENT DISCREPANCY =           0.00




         TIME SUMMARY AT END OF TIME STEP  100 IN STRESS PERIOD    1
                    SECONDS     MINUTES      HOURS       DAYS        YEARS
                    -----------------------------------------------------------
   TIME STEP LENGTH 4.14581E+06  69097.      1151.6      47.984     0.13137    
 STRESS PERIOD TIME 8.64000E+07 1.44000E+06  24000.      1000.0      2.7379    
         TOTAL TIME 8.64000E+07 1.44000E+06  24000.      1000.0      2.7379    


end timestep

 
 LARGEST 1 OF 1 INTERBED STRAIN VALUES SHOWN

 CSUB PACKAGE INTERBED STRAIN SUMMARY
 ----------------------------------------------------------------------------------------------------------------------
  INTERBED   INTERBED                         INITIAL       FINAL        TOTAL                    PERCENT              
   NUMBER      TYPE    CELLID                THICKNESS    THICKNESS    COMPACTION  FINAL STRAIN  COMPACTION     FLAG   
 ----------------------------------------------------------------------------------------------------------------------
     1        delay    (1,1,2)               50.000       50.000       2.2549       4.50976E-02  4.5098        *>=1%   
 ----------------------------------------------------------------------------------------------------------------------



 PERCENT COMPACTION IS GREATER THAN OR EQUAL TO 1 PERCENT IN 1 OF 1 INTERBED(S).
 USE THE STRAIN_CSV_INTERBED OPTION TO OUTPUT A CSV FILE WITH PERCENT COMPACTION 
 VALUES FOR ALL INTERBEDS.

 COARSE-GRAINED STORAGE PERCENT COMPACTION WAS LESS THAN 1 PERCENT IN ALL CELLS
