                                   MODFLOW 6
                U.S. GEOLOGICAL SURVEY MODULAR HYDROLOGIC MODEL
                          GROUNDWATER FLOW MODEL (GWF)
                            VERSION 6.4.4 02/13/2024

   MODFLOW 6 compiled Feb 13 2024 15:40:13 with Intel(R) Fortran Intel(R) 64
   Compiler Classic for applications running on Intel(R) 64, Version 2021.7.0
                             Build 20220726_000000

This software has been approved for release by the U.S. Geological 
Survey (USGS). Although the software has been subjected to rigorous 
review, the USGS reserves the right to update the software as needed 
pursuant to further analysis and review. No warranty, expressed or 
implied, is made by the USGS or the U.S. Government as to the 
functionality of the software and related material nor shall the 
fact of release constitute any such warranty. Furthermore, the 
software is released on condition that neither the USGS nor the U.S. 
Government shall be held liable for any damages resulting from its 
authorized or unauthorized use. Also refer to the USGS Water 
Resources Software User Rights Notice for complete use, copyright, 
and distribution information.


As a work of the United States Government, this USGS product is 
in the public domain within the United States. You can copy, 
modify, distribute, and perform the work, even for commercial 
purposes, all without asking permission. Additionally, USGS 
waives copyright and related rights in the work worldwide 
through CC0 1.0 Universal Public Domain Dedication 
(https://creativecommons.org/publicdomain/zero/1.0/).

The following GNU Lesser General Public License (LGPL) libraries
are used in this USGS product:

    SPARSKIT version 2.0
      ilut, luson, and qsplit 
      (https://www-users.cse.umn.edu/~saad/software/SPARSKIT/)

    RCM - Reverse Cuthill McKee Ordering
      (https://people.math.sc.edu/Burkardt/f_src/rcm/rcm.html)

    BLAS - Basic Linear Algebra Subprograms Level 1
      (https://people.math.sc.edu/Burkardt/f_src/blas1_d/blas1_d.html)

    SPARSEKIT - Sparse Matrix Utility Package
      amux, dperm, dvperm, rperm, and cperm
      (https://people.sc.fsu.edu/~jburkardt/f77_src/sparsekit/sparsekit.html)

The following BSD-3 License libraries are used in this USGS product:

    Modern Fortran DAG Library
      Copyright (c) 2018, Jacob Williams
      All rights reserved.
      (https://github.com/jacobwilliams/daglib)

MODFLOW 6 compiler options: /Isrc\libmf6core.a.p /Isrc /I..\src
/Isrc\libmf6_external.a.p /MTd /nologo /warn:general /warn:truncated_source
/stand:f08 /Zi /traceback /O2 /fpe:0 /heap-arrays:0 /traceback /fpp
/Qdiag-disable:7416 /Qdiag-disable:7025 /Qdiag-disable:5268
/Fdsrc\libmf6core.a.p\Utilities_compilerversion.F90.pdb
/module:src\libmf6core.a.p
/Fosrc/libmf6core.a.p/Utilities_compilerversion.F90.obj /c

System command used to initiate simulation:
"F:\新建文件夹\给韩尚麒\衡水模型\地面沉降包离散节点小论文\新版本算例\Case study\算例2\MODFLOW-CSUB\mf6.exe"

MODFLOW was compiled using uniform precision.

Real Variables
  KIND: 8
  TINY (smallest non-zero value):    2.225074-308
  HUGE (largest value):    1.797693+308
  PRECISION: 15
  SIZE IN BITS: 64

Integer Variables
  KIND: 4
  HUGE (largest value): 2147483647
  SIZE IN BITS: 32

Long Integer Variables
  KIND: 8
  HUGE (largest value): 9223372036854775807
  SIZE IN BITS: 64

Logical Variables
  KIND: 4
  SIZE IN BITS: 32
 
 NAMEFILE OPTIONS:
    FLOWS WILL BE SAVED TO BUDGET FILE SPECIFIED IN OUTPUT CONTROL
 END NAMEFILE OPTIONS:

 DIS -- STRUCTURED GRID DISCRETIZATION PACKAGE, VERSION 2 : 3/27/2014 - INPUT READ FROM MEMPATH: __INPUT__/CASE2/DIS                               


 NPF -- NODE PROPERTY FLOW PACKAGE, VERSION 1, 3/30/2015 INPUT READ FROM MEMPATH: __INPUT__/CASE2/NPF                               


 IC -- Initial Conditions Package, Version 8, 3/28/2015 input read from mempath: __INPUT__/CASE2/IC                                


 Setting Discretization Options
    Model length unit [0=UND, 1=FEET, 2=METERS, 3=CENTIMETERS] set as 2
 End Setting Discretization Options

 Setting Discretization Dimensions
    NLAY = 1
    NROW = 1
    NCOL = 3
 End Setting Discretization Dimensions

 Setting Discretization Griddata
    DELR set from input file
    DELC set from input file
    TOP set from input file
    BOTM set from input file
 End Setting Discretization Griddata

 Setting NPF Options
    Specific discharge will be calculated at cell centers and written to DATA-SPDIS in budget file when requested.
 End Setting NPF Options

 Setting NPF Griddata
    ICELLTYPE set from input file
    K set from input file
    K33 not provided.  Setting K33 = K.
    K22 not provided.  Setting K22 = K.
 End Setting NPF Griddata


 CHD   -- CHD PACKAGE, VERSION 8, 2/22/2014 INPUT READ FROM MEMPATH: __INPUT__/CASE2/CHD_0                             

 PROCESSING CHD BASE OPTIONS
 END OF CHD BASE OPTIONS

 PROCESSING CHD BASE DIMENSIONS
    MAXBOUND =       2
 END OF CHD BASE DIMENSIONS
    STRT set from input file

 STO -- STORAGE PACKAGE, VERSION 1, 5/19/2014 INPUT READ FROM UNIT 1005


 # File generated by Flopy version 3.6.0.dev0 on 02/07/2024 at 20:14:53.
 PROCESSING STORAGE OPTIONS
 END OF STORAGE OPTIONS
 PROCESSING GRIDDATA

                 ICONVERT = 0

         SPECIFIC STORAGE =   0.000000    

           SPECIFIC YIELD =   0.000000    
 END PROCESSING GRIDDATA

 CSUB -- COMPACTION PACKAGE, VERSION 1, 12/15/2019 INPUT READ FROM UNIT 1010


 # File generated by Flopy version 3.6.0.dev0 on 02/07/2024 at 20:14:53.
 PROCESSING CSUB OPTIONS
    CSUB BOUNDARIES HAVE NAMES IN LAST COLUMN.
    LISTS OF CSUB CELLS WILL BE PRINTED.
    FLOWS WILL BE SAVED TO BUDGET FILE SPECIFIED IN OUTPUT CONTROL

 OPENED case2.csub.obs
 FILE TYPE:OBS   UNIT 1014   STATUS:OLD                 
 FORMAT:FORMATTED              ACCESS:SEQUENTIAL          
 ACTION:READ                

 END OF CSUB OPTIONS


 CSUB PACKAGE SETTINGS
    NUMBER OF DELAY CELLS = 1001
    EFFECTIVE-STRESS FORMULATION
    ELASTIC AND INELASTIC SPECIFIC STORAGE COEFFICIENTS WILL BE 
      SPECIFIED
    THICKNESS AND VOID RATIO WILL NOT BE ADJUSTED DURING THE
      SIMULATION
    INTERBED THICKNESS WILL BE SPECIFIED AS A THICKNESS
    PRECONSOLIDATION STRESS WILL BE SPECIFIED RELATIVE TO INITIAL
      STRESS CONDITIONS
    DELAY INTERBED HEADS WILL BE SPECIFIED RELATIVE TO INITIAL 
      GWF HEADS
    SPECIFIC STORAGE VALUES WILL BE CALCULATED USING THE CURRENT
      EFFECTIVE STRESS
    GAMMAW        = 9806.650000000000
    BETA          = .000000000000000
    GAMMAW * BETA = .000000000000000

 PROCESSING CSUB DIMENSIONS
    NINTERBEDS = 1
 END OF CSUB DIMENSIONS

The observation utility is active for "CSUB"
 # File generated by Flopy version 3.6.0.dev0 on 02/07/2024 at 20:14:53.

Processing observation options:

Text output number of digits of precision set to: 10
The PRINT_INPUT option has been specified.


 OBSERVATIONS READ FROM FILE "case2.csub.obs"
 ----------------------------------------------------------------------------------------------------------------------------------------------------------------------------------------------------------------------------
 NAME                                     TYPE                                       TIME         LOCATION DATA                              OUTPUT FILENAME                                                                 
 ----------------------------------------------------------------------------------------------------------------------------------------------------------------------------------------------------------------------------
 TCOMP                                    CONTINUOUS  INTERBED-COMPACTION            ALL TIMES    "  ib1"                                    case2.csub.obs.csv                                                              
 SK                                       CONTINUOUS  SK                             ALL TIMES    "  ib1"                                    case2.csub.obs.csv                                                              
 QTOP                                     CONTINUOUS  DELAY-FLOWTOP                  ALL TIMES    "  1"                                      case2.csub.obs.csv                                                              
 QBOT                                     CONTINUOUS  DELAY-FLOWBOT                  ALL TIMES    "  1"                                      case2.csub.obs.csv                                                              
 H0001                                    CONTINUOUS  DELAY-HEAD                     ALL TIMES    "  1  1"                                   case2.csub.obs.csv                                                              
 H0002                                    CONTINUOUS  DELAY-HEAD                     ALL TIMES    "  1  2"                                   case2.csub.obs.csv                                                              
 H0003                                    CONTINUOUS  DELAY-HEAD                     ALL TIMES    "  1  3"                                   case2.csub.obs.csv                                                              
 H0004                                    CONTINUOUS  DELAY-HEAD                     ALL TIMES    "  1  4"                                   case2.csub.obs.csv                                                              
 H0005                                    CONTINUOUS  DELAY-HEAD                     ALL TIMES    "  1  5"                                   case2.csub.obs.csv                                                              
 H0006                                    CONTINUOUS  DELAY-HEAD                     ALL TIMES    "  1  6"                                   case2.csub.obs.csv                                                              
 H0007                                    CONTINUOUS  DELAY-HEAD                     ALL TIMES    "  1  7"                                   case2.csub.obs.csv                                                              
 H0008                                    CONTINUOUS  DELAY-HEAD                     ALL TIMES    "  1  8"                                   case2.csub.obs.csv                                                              
 H0009                                    CONTINUOUS  DELAY-HEAD                     ALL TIMES    "  1  9"                                   case2.csub.obs.csv                                                              
 H0010                                    CONTINUOUS  DELAY-HEAD                     ALL TIMES    "  1  10"                                  case2.csub.obs.csv                                                              
 H0011                                    CONTINUOUS  DELAY-HEAD                     ALL TIMES    "  1  11"                                  case2.csub.obs.csv                                                              
 H0012                                    CONTINUOUS  DELAY-HEAD                     ALL TIMES    "  1  12"                                  case2.csub.obs.csv                                                              
 H0013                                    CONTINUOUS  DELAY-HEAD                     ALL TIMES    "  1  13"                                  case2.csub.obs.csv                                                              
 H0014                                    CONTINUOUS  DELAY-HEAD                     ALL TIMES    "  1  14"                                  case2.csub.obs.csv                                                              
 H0015                                    CONTINUOUS  DELAY-HEAD                     ALL TIMES    "  1  15"                                  case2.csub.obs.csv                                                              
 H0016                                    CONTINUOUS  DELAY-HEAD                     ALL TIMES    "  1  16"                                  case2.csub.obs.csv                                                              
 H0017                                    CONTINUOUS  DELAY-HEAD                     ALL TIMES    "  1  17"                                  case2.csub.obs.csv                                                              
 H0018                                    CONTINUOUS  DELAY-HEAD                     ALL TIMES    "  1  18"                                  case2.csub.obs.csv                                                              
 H0019                                    CONTINUOUS  DELAY-HEAD                     ALL TIMES    "  1  19"                                  case2.csub.obs.csv                                                              
 H0020                                    CONTINUOUS  DELAY-HEAD                     ALL TIMES    "  1  20"                                  case2.csub.obs.csv                                                              
 H0021                                    CONTINUOUS  DELAY-HEAD                     ALL TIMES    "  1  21"                                  case2.csub.obs.csv                                                              
 H0022                                    CONTINUOUS  DELAY-HEAD                     ALL TIMES    "  1  22"                                  case2.csub.obs.csv                                                              
 H0023                                    CONTINUOUS  DELAY-HEAD                     ALL TIMES    "  1  23"                                  case2.csub.obs.csv                                                              
 H0024                                    CONTINUOUS  DELAY-HEAD                     ALL TIMES    "  1  24"                                  case2.csub.obs.csv                                                              
 H0025                                    CONTINUOUS  DELAY-HEAD                     ALL TIMES    "  1  25"                                  case2.csub.obs.csv                                                              
 H0026                                    CONTINUOUS  DELAY-HEAD                     ALL TIMES    "  1  26"                                  case2.csub.obs.csv                                                              
 H0027                                    CONTINUOUS  DELAY-HEAD                     ALL TIMES    "  1  27"                                  case2.csub.obs.csv                                                              
 H0028                                    CONTINUOUS  DELAY-HEAD                     ALL TIMES    "  1  28"                                  case2.csub.obs.csv                                                              
 H0029                                    CONTINUOUS  DELAY-HEAD                     ALL TIMES    "  1  29"                                  case2.csub.obs.csv                                                              
 H0030                                    CONTINUOUS  DELAY-HEAD                     ALL TIMES    "  1  30"                                  case2.csub.obs.csv                                                              
 H0031                                    CONTINUOUS  DELAY-HEAD                     ALL TIMES    "  1  31"                                  case2.csub.obs.csv                                                              
 H0032                                    CONTINUOUS  DELAY-HEAD                     ALL TIMES    "  1  32"                                  case2.csub.obs.csv                                                              
 H0033                                    CONTINUOUS  DELAY-HEAD                     ALL TIMES    "  1  33"                                  case2.csub.obs.csv                                                              
 H0034                                    CONTINUOUS  DELAY-HEAD                     ALL TIMES    "  1  34"                                  case2.csub.obs.csv                                                              
 H0035                                    CONTINUOUS  DELAY-HEAD                     ALL TIMES    "  1  35"                                  case2.csub.obs.csv                                                              
 H0036                                    CONTINUOUS  DELAY-HEAD                     ALL TIMES    "  1  36"                                  case2.csub.obs.csv                                                              
 H0037                                    CONTINUOUS  DELAY-HEAD                     ALL TIMES    "  1  37"                                  case2.csub.obs.csv                                                              
 H0038                                    CONTINUOUS  DELAY-HEAD                     ALL TIMES    "  1  38"                                  case2.csub.obs.csv                                                              
 H0039                                    CONTINUOUS  DELAY-HEAD                     ALL TIMES    "  1  39"                                  case2.csub.obs.csv                                                              
 H0040                                    CONTINUOUS  DELAY-HEAD                     ALL TIMES    "  1  40"                                  case2.csub.obs.csv                                                              
 H0041                                    CONTINUOUS  DELAY-HEAD                     ALL TIMES    "  1  41"                                  case2.csub.obs.csv                                                              
 H0042                                    CONTINUOUS  DELAY-HEAD                     ALL TIMES    "  1  42"                                  case2.csub.obs.csv                                                              
 H0043                                    CONTINUOUS  DELAY-HEAD                     ALL TIMES    "  1  43"                                  case2.csub.obs.csv                                                              
 H0044                                    CONTINUOUS  DELAY-HEAD                     ALL TIMES    "  1  44"                                  case2.csub.obs.csv                                                              
 H0045                                    CONTINUOUS  DELAY-HEAD                     ALL TIMES    "  1  45"                                  case2.csub.obs.csv                                                              
 H0046                                    CONTINUOUS  DELAY-HEAD                     ALL TIMES    "  1  46"                                  case2.csub.obs.csv                                                              
 H0047                                    CONTINUOUS  DELAY-HEAD                     ALL TIMES    "  1  47"                                  case2.csub.obs.csv                                                              
 H0048                                    CONTINUOUS  DELAY-HEAD                     ALL TIMES    "  1  48"                                  case2.csub.obs.csv                                                              
 H0049                                    CONTINUOUS  DELAY-HEAD                     ALL TIMES    "  1  49"                                  case2.csub.obs.csv                                                              
 H0050                                    CONTINUOUS  DELAY-HEAD                     ALL TIMES    "  1  50"                                  case2.csub.obs.csv                                                              
 H0051                                    CONTINUOUS  DELAY-HEAD                     ALL TIMES    "  1  51"                                  case2.csub.obs.csv                                                              
 H0052                                    CONTINUOUS  DELAY-HEAD                     ALL TIMES    "  1  52"                                  case2.csub.obs.csv                                                              
 H0053                                    CONTINUOUS  DELAY-HEAD                     ALL TIMES    "  1  53"                                  case2.csub.obs.csv                                                              
 H0054                                    CONTINUOUS  DELAY-HEAD                     ALL TIMES    "  1  54"                                  case2.csub.obs.csv                                                              
 H0055                                    CONTINUOUS  DELAY-HEAD                     ALL TIMES    "  1  55"                                  case2.csub.obs.csv                                                              
 H0056                                    CONTINUOUS  DELAY-HEAD                     ALL TIMES    "  1  56"                                  case2.csub.obs.csv                                                              
 H0057                                    CONTINUOUS  DELAY-HEAD                     ALL TIMES    "  1  57"                                  case2.csub.obs.csv                                                              
 H0058                                    CONTINUOUS  DELAY-HEAD                     ALL TIMES    "  1  58"                                  case2.csub.obs.csv                                                              
 H0059                                    CONTINUOUS  DELAY-HEAD                     ALL TIMES    "  1  59"                                  case2.csub.obs.csv                                                              
 H0060                                    CONTINUOUS  DELAY-HEAD                     ALL TIMES    "  1  60"                                  case2.csub.obs.csv                                                              
 H0061                                    CONTINUOUS  DELAY-HEAD                     ALL TIMES    "  1  61"                                  case2.csub.obs.csv                                                              
 H0062                                    CONTINUOUS  DELAY-HEAD                     ALL TIMES    "  1  62"                                  case2.csub.obs.csv                                                              
 H0063                                    CONTINUOUS  DELAY-HEAD                     ALL TIMES    "  1  63"                                  case2.csub.obs.csv                                                              
 H0064                                    CONTINUOUS  DELAY-HEAD                     ALL TIMES    "  1  64"                                  case2.csub.obs.csv                                                              
 H0065                                    CONTINUOUS  DELAY-HEAD                     ALL TIMES    "  1  65"                                  case2.csub.obs.csv                                                              
 H0066                                    CONTINUOUS  DELAY-HEAD                     ALL TIMES    "  1  66"                                  case2.csub.obs.csv                                                              
 H0067                                    CONTINUOUS  DELAY-HEAD                     ALL TIMES    "  1  67"                                  case2.csub.obs.csv                                                              
 H0068                                    CONTINUOUS  DELAY-HEAD                     ALL TIMES    "  1  68"                                  case2.csub.obs.csv                                                              
 H0069                                    CONTINUOUS  DELAY-HEAD                     ALL TIMES    "  1  69"                                  case2.csub.obs.csv                                                              
 H0070                                    CONTINUOUS  DELAY-HEAD                     ALL TIMES    "  1  70"                                  case2.csub.obs.csv                                                              
 H0071                                    CONTINUOUS  DELAY-HEAD                     ALL TIMES    "  1  71"                                  case2.csub.obs.csv                                                              
 H0072                                    CONTINUOUS  DELAY-HEAD                     ALL TIMES    "  1  72"                                  case2.csub.obs.csv                                                              
 H0073                                    CONTINUOUS  DELAY-HEAD                     ALL TIMES    "  1  73"                                  case2.csub.obs.csv                                                              
 H0074                                    CONTINUOUS  DELAY-HEAD                     ALL TIMES    "  1  74"                                  case2.csub.obs.csv                                                              
 H0075                                    CONTINUOUS  DELAY-HEAD                     ALL TIMES    "  1  75"                                  case2.csub.obs.csv                                                              
 H0076                                    CONTINUOUS  DELAY-HEAD                     ALL TIMES    "  1  76"                                  case2.csub.obs.csv                                                              
 H0077                                    CONTINUOUS  DELAY-HEAD                     ALL TIMES    "  1  77"                                  case2.csub.obs.csv                                                              
 H0078                                    CONTINUOUS  DELAY-HEAD                     ALL TIMES    "  1  78"                                  case2.csub.obs.csv                                                              
 H0079                                    CONTINUOUS  DELAY-HEAD                     ALL TIMES    "  1  79"                                  case2.csub.obs.csv                                                              
 H0080                                    CONTINUOUS  DELAY-HEAD                     ALL TIMES    "  1  80"                                  case2.csub.obs.csv                                                              
 H0081                                    CONTINUOUS  DELAY-HEAD                     ALL TIMES    "  1  81"                                  case2.csub.obs.csv                                                              
 H0082                                    CONTINUOUS  DELAY-HEAD                     ALL TIMES    "  1  82"                                  case2.csub.obs.csv                                                              
 H0083                                    CONTINUOUS  DELAY-HEAD                     ALL TIMES    "  1  83"                                  case2.csub.obs.csv                                                              
 H0084                                    CONTINUOUS  DELAY-HEAD                     ALL TIMES    "  1  84"                                  case2.csub.obs.csv                                                              
 H0085                                    CONTINUOUS  DELAY-HEAD                     ALL TIMES    "  1  85"                                  case2.csub.obs.csv                                                              
 H0086                                    CONTINUOUS  DELAY-HEAD                     ALL TIMES    "  1  86"                                  case2.csub.obs.csv                                                              
 H0087                                    CONTINUOUS  DELAY-HEAD                     ALL TIMES    "  1  87"                                  case2.csub.obs.csv                                                              
 H0088                                    CONTINUOUS  DELAY-HEAD                     ALL TIMES    "  1  88"                                  case2.csub.obs.csv                                                              
 H0089                                    CONTINUOUS  DELAY-HEAD                     ALL TIMES    "  1  89"                                  case2.csub.obs.csv                                                              
 H0090                                    CONTINUOUS  DELAY-HEAD                     ALL TIMES    "  1  90"                                  case2.csub.obs.csv                                                              
 H0091                                    CONTINUOUS  DELAY-HEAD                     ALL TIMES    "  1  91"                                  case2.csub.obs.csv                                                              
 H0092                                    CONTINUOUS  DELAY-HEAD                     ALL TIMES    "  1  92"                                  case2.csub.obs.csv                                                              
 H0093                                    CONTINUOUS  DELAY-HEAD                     ALL TIMES    "  1  93"                                  case2.csub.obs.csv                                                              
 H0094                                    CONTINUOUS  DELAY-HEAD                     ALL TIMES    "  1  94"                                  case2.csub.obs.csv                                                              
 H0095                                    CONTINUOUS  DELAY-HEAD                     ALL TIMES    "  1  95"                                  case2.csub.obs.csv                                                              
 H0096                                    CONTINUOUS  DELAY-HEAD                     ALL TIMES    "  1  96"                                  case2.csub.obs.csv                                                              
 H0097                                    CONTINUOUS  DELAY-HEAD                     ALL TIMES    "  1  97"                                  case2.csub.obs.csv                                                              
 H0098                                    CONTINUOUS  DELAY-HEAD                     ALL TIMES    "  1  98"                                  case2.csub.obs.csv                                                              
 H0099                                    CONTINUOUS  DELAY-HEAD                     ALL TIMES    "  1  99"                                  case2.csub.obs.csv                                                              
 H0100                                    CONTINUOUS  DELAY-HEAD                     ALL TIMES    "  1  100"                                 case2.csub.obs.csv                                                              
 H0101                                    CONTINUOUS  DELAY-HEAD                     ALL TIMES    "  1  101"                                 case2.csub.obs.csv                                                              
 H0102                                    CONTINUOUS  DELAY-HEAD                     ALL TIMES    "  1  102"                                 case2.csub.obs.csv                                                              
 H0103                                    CONTINUOUS  DELAY-HEAD                     ALL TIMES    "  1  103"                                 case2.csub.obs.csv                                                              
 H0104                                    CONTINUOUS  DELAY-HEAD                     ALL TIMES    "  1  104"                                 case2.csub.obs.csv                                                              
 H0105                                    CONTINUOUS  DELAY-HEAD                     ALL TIMES    "  1  105"                                 case2.csub.obs.csv                                                              
 H0106                                    CONTINUOUS  DELAY-HEAD                     ALL TIMES    "  1  106"                                 case2.csub.obs.csv                                                              
 H0107                                    CONTINUOUS  DELAY-HEAD                     ALL TIMES    "  1  107"                                 case2.csub.obs.csv                                                              
 H0108                                    CONTINUOUS  DELAY-HEAD                     ALL TIMES    "  1  108"                                 case2.csub.obs.csv                                                              
 H0109                                    CONTINUOUS  DELAY-HEAD                     ALL TIMES    "  1  109"                                 case2.csub.obs.csv                                                              
 H0110                                    CONTINUOUS  DELAY-HEAD                     ALL TIMES    "  1  110"                                 case2.csub.obs.csv                                                              
 H0111                                    CONTINUOUS  DELAY-HEAD                     ALL TIMES    "  1  111"                                 case2.csub.obs.csv                                                              
 H0112                                    CONTINUOUS  DELAY-HEAD                     ALL TIMES    "  1  112"                                 case2.csub.obs.csv                                                              
 H0113                                    CONTINUOUS  DELAY-HEAD                     ALL TIMES    "  1  113"                                 case2.csub.obs.csv                                                              
 H0114                                    CONTINUOUS  DELAY-HEAD                     ALL TIMES    "  1  114"                                 case2.csub.obs.csv                                                              
 H0115                                    CONTINUOUS  DELAY-HEAD                     ALL TIMES    "  1  115"                                 case2.csub.obs.csv                                                              
 H0116                                    CONTINUOUS  DELAY-HEAD                     ALL TIMES    "  1  116"                                 case2.csub.obs.csv                                                              
 H0117                                    CONTINUOUS  DELAY-HEAD                     ALL TIMES    "  1  117"                                 case2.csub.obs.csv                                                              
 H0118                                    CONTINUOUS  DELAY-HEAD                     ALL TIMES    "  1  118"                                 case2.csub.obs.csv                                                              
 H0119                                    CONTINUOUS  DELAY-HEAD                     ALL TIMES    "  1  119"                                 case2.csub.obs.csv                                                              
 H0120                                    CONTINUOUS  DELAY-HEAD                     ALL TIMES    "  1  120"                                 case2.csub.obs.csv                                                              
 H0121                                    CONTINUOUS  DELAY-HEAD                     ALL TIMES    "  1  121"                                 case2.csub.obs.csv                                                              
 H0122                                    CONTINUOUS  DELAY-HEAD                     ALL TIMES    "  1  122"                                 case2.csub.obs.csv                                                              
 H0123                                    CONTINUOUS  DELAY-HEAD                     ALL TIMES    "  1  123"                                 case2.csub.obs.csv                                                              
 H0124                                    CONTINUOUS  DELAY-HEAD                     ALL TIMES    "  1  124"                                 case2.csub.obs.csv                                                              
 H0125                                    CONTINUOUS  DELAY-HEAD                     ALL TIMES    "  1  125"                                 case2.csub.obs.csv                                                              
 H0126                                    CONTINUOUS  DELAY-HEAD                     ALL TIMES    "  1  126"                                 case2.csub.obs.csv                                                              
 H0127                                    CONTINUOUS  DELAY-HEAD                     ALL TIMES    "  1  127"                                 case2.csub.obs.csv                                                              
 H0128                                    CONTINUOUS  DELAY-HEAD                     ALL TIMES    "  1  128"                                 case2.csub.obs.csv                                                              
 H0129                                    CONTINUOUS  DELAY-HEAD                     ALL TIMES    "  1  129"                                 case2.csub.obs.csv                                                              
 H0130                                    CONTINUOUS  DELAY-HEAD                     ALL TIMES    "  1  130"                                 case2.csub.obs.csv                                                              
 H0131                                    CONTINUOUS  DELAY-HEAD                     ALL TIMES    "  1  131"                                 case2.csub.obs.csv                                                              
 H0132                                    CONTINUOUS  DELAY-HEAD                     ALL TIMES    "  1  132"                                 case2.csub.obs.csv                                                              
 H0133                                    CONTINUOUS  DELAY-HEAD                     ALL TIMES    "  1  133"                                 case2.csub.obs.csv                                                              
 H0134                                    CONTINUOUS  DELAY-HEAD                     ALL TIMES    "  1  134"                                 case2.csub.obs.csv                                                              
 H0135                                    CONTINUOUS  DELAY-HEAD                     ALL TIMES    "  1  135"                                 case2.csub.obs.csv                                                              
 H0136                                    CONTINUOUS  DELAY-HEAD                     ALL TIMES    "  1  136"                                 case2.csub.obs.csv                                                              
 H0137                                    CONTINUOUS  DELAY-HEAD                     ALL TIMES    "  1  137"                                 case2.csub.obs.csv                                                              
 H0138                                    CONTINUOUS  DELAY-HEAD                     ALL TIMES    "  1  138"                                 case2.csub.obs.csv                                                              
 H0139                                    CONTINUOUS  DELAY-HEAD                     ALL TIMES    "  1  139"                                 case2.csub.obs.csv                                                              
 H0140                                    CONTINUOUS  DELAY-HEAD                     ALL TIMES    "  1  140"                                 case2.csub.obs.csv                                                              
 H0141                                    CONTINUOUS  DELAY-HEAD                     ALL TIMES    "  1  141"                                 case2.csub.obs.csv                                                              
 H0142                                    CONTINUOUS  DELAY-HEAD                     ALL TIMES    "  1  142"                                 case2.csub.obs.csv                                                              
 H0143                                    CONTINUOUS  DELAY-HEAD                     ALL TIMES    "  1  143"                                 case2.csub.obs.csv                                                              
 H0144                                    CONTINUOUS  DELAY-HEAD                     ALL TIMES    "  1  144"                                 case2.csub.obs.csv                                                              
 H0145                                    CONTINUOUS  DELAY-HEAD                     ALL TIMES    "  1  145"                                 case2.csub.obs.csv                                                              
 H0146                                    CONTINUOUS  DELAY-HEAD                     ALL TIMES    "  1  146"                                 case2.csub.obs.csv                                                              
 H0147                                    CONTINUOUS  DELAY-HEAD                     ALL TIMES    "  1  147"                                 case2.csub.obs.csv                                                              
 H0148                                    CONTINUOUS  DELAY-HEAD                     ALL TIMES    "  1  148"                                 case2.csub.obs.csv                                                              
 H0149                                    CONTINUOUS  DELAY-HEAD                     ALL TIMES    "  1  149"                                 case2.csub.obs.csv                                                              
 H0150                                    CONTINUOUS  DELAY-HEAD                     ALL TIMES    "  1  150"                                 case2.csub.obs.csv                                                              
 H0151                                    CONTINUOUS  DELAY-HEAD                     ALL TIMES    "  1  151"                                 case2.csub.obs.csv                                                              
 H0152                                    CONTINUOUS  DELAY-HEAD                     ALL TIMES    "  1  152"                                 case2.csub.obs.csv                                                              
 H0153                                    CONTINUOUS  DELAY-HEAD                     ALL TIMES    "  1  153"                                 case2.csub.obs.csv                                                              
 H0154                                    CONTINUOUS  DELAY-HEAD                     ALL TIMES    "  1  154"                                 case2.csub.obs.csv                                                              
 H0155                                    CONTINUOUS  DELAY-HEAD                     ALL TIMES    "  1  155"                                 case2.csub.obs.csv                                                              
 H0156                                    CONTINUOUS  DELAY-HEAD                     ALL TIMES    "  1  156"                                 case2.csub.obs.csv                                                              
 H0157                                    CONTINUOUS  DELAY-HEAD                     ALL TIMES    "  1  157"                                 case2.csub.obs.csv                                                              
 H0158                                    CONTINUOUS  DELAY-HEAD                     ALL TIMES    "  1  158"                                 case2.csub.obs.csv                                                              
 H0159                                    CONTINUOUS  DELAY-HEAD                     ALL TIMES    "  1  159"                                 case2.csub.obs.csv                                                              
 H0160                                    CONTINUOUS  DELAY-HEAD                     ALL TIMES    "  1  160"                                 case2.csub.obs.csv                                                              
 H0161                                    CONTINUOUS  DELAY-HEAD                     ALL TIMES    "  1  161"                                 case2.csub.obs.csv                                                              
 H0162                                    CONTINUOUS  DELAY-HEAD                     ALL TIMES    "  1  162"                                 case2.csub.obs.csv                                                              
 H0163                                    CONTINUOUS  DELAY-HEAD                     ALL TIMES    "  1  163"                                 case2.csub.obs.csv                                                              
 H0164                                    CONTINUOUS  DELAY-HEAD                     ALL TIMES    "  1  164"                                 case2.csub.obs.csv                                                              
 H0165                                    CONTINUOUS  DELAY-HEAD                     ALL TIMES    "  1  165"                                 case2.csub.obs.csv                                                              
 H0166                                    CONTINUOUS  DELAY-HEAD                     ALL TIMES    "  1  166"                                 case2.csub.obs.csv                                                              
 H0167                                    CONTINUOUS  DELAY-HEAD                     ALL TIMES    "  1  167"                                 case2.csub.obs.csv                                                              
 H0168                                    CONTINUOUS  DELAY-HEAD                     ALL TIMES    "  1  168"                                 case2.csub.obs.csv                                                              
 H0169                                    CONTINUOUS  DELAY-HEAD                     ALL TIMES    "  1  169"                                 case2.csub.obs.csv                                                              
 H0170                                    CONTINUOUS  DELAY-HEAD                     ALL TIMES    "  1  170"                                 case2.csub.obs.csv                                                              
 H0171                                    CONTINUOUS  DELAY-HEAD                     ALL TIMES    "  1  171"                                 case2.csub.obs.csv                                                              
 H0172                                    CONTINUOUS  DELAY-HEAD                     ALL TIMES    "  1  172"                                 case2.csub.obs.csv                                                              
 H0173                                    CONTINUOUS  DELAY-HEAD                     ALL TIMES    "  1  173"                                 case2.csub.obs.csv                                                              
 H0174                                    CONTINUOUS  DELAY-HEAD                     ALL TIMES    "  1  174"                                 case2.csub.obs.csv                                                              
 H0175                                    CONTINUOUS  DELAY-HEAD                     ALL TIMES    "  1  175"                                 case2.csub.obs.csv                                                              
 H0176                                    CONTINUOUS  DELAY-HEAD                     ALL TIMES    "  1  176"                                 case2.csub.obs.csv                                                              
 H0177                                    CONTINUOUS  DELAY-HEAD                     ALL TIMES    "  1  177"                                 case2.csub.obs.csv                                                              
 H0178                                    CONTINUOUS  DELAY-HEAD                     ALL TIMES    "  1  178"                                 case2.csub.obs.csv                                                              
 H0179                                    CONTINUOUS  DELAY-HEAD                     ALL TIMES    "  1  179"                                 case2.csub.obs.csv                                                              
 H0180                                    CONTINUOUS  DELAY-HEAD                     ALL TIMES    "  1  180"                                 case2.csub.obs.csv                                                              
 H0181                                    CONTINUOUS  DELAY-HEAD                     ALL TIMES    "  1  181"                                 case2.csub.obs.csv                                                              
 H0182                                    CONTINUOUS  DELAY-HEAD                     ALL TIMES    "  1  182"                                 case2.csub.obs.csv                                                              
 H0183                                    CONTINUOUS  DELAY-HEAD                     ALL TIMES    "  1  183"                                 case2.csub.obs.csv                                                              
 H0184                                    CONTINUOUS  DELAY-HEAD                     ALL TIMES    "  1  184"                                 case2.csub.obs.csv                                                              
 H0185                                    CONTINUOUS  DELAY-HEAD                     ALL TIMES    "  1  185"                                 case2.csub.obs.csv                                                              
 H0186                                    CONTINUOUS  DELAY-HEAD                     ALL TIMES    "  1  186"                                 case2.csub.obs.csv                                                              
 H0187                                    CONTINUOUS  DELAY-HEAD                     ALL TIMES    "  1  187"                                 case2.csub.obs.csv                                                              
 H0188                                    CONTINUOUS  DELAY-HEAD                     ALL TIMES    "  1  188"                                 case2.csub.obs.csv                                                              
 H0189                                    CONTINUOUS  DELAY-HEAD                     ALL TIMES    "  1  189"                                 case2.csub.obs.csv                                                              
 H0190                                    CONTINUOUS  DELAY-HEAD                     ALL TIMES    "  1  190"                                 case2.csub.obs.csv                                                              
 H0191                                    CONTINUOUS  DELAY-HEAD                     ALL TIMES    "  1  191"                                 case2.csub.obs.csv                                                              
 H0192                                    CONTINUOUS  DELAY-HEAD                     ALL TIMES    "  1  192"                                 case2.csub.obs.csv                                                              
 H0193                                    CONTINUOUS  DELAY-HEAD                     ALL TIMES    "  1  193"                                 case2.csub.obs.csv                                                              
 H0194                                    CONTINUOUS  DELAY-HEAD                     ALL TIMES    "  1  194"                                 case2.csub.obs.csv                                                              
 H0195                                    CONTINUOUS  DELAY-HEAD                     ALL TIMES    "  1  195"                                 case2.csub.obs.csv                                                              
 H0196                                    CONTINUOUS  DELAY-HEAD                     ALL TIMES    "  1  196"                                 case2.csub.obs.csv                                                              
 H0197                                    CONTINUOUS  DELAY-HEAD                     ALL TIMES    "  1  197"                                 case2.csub.obs.csv                                                              
 H0198                                    CONTINUOUS  DELAY-HEAD                     ALL TIMES    "  1  198"                                 case2.csub.obs.csv                                                              
 H0199                                    CONTINUOUS  DELAY-HEAD                     ALL TIMES    "  1  199"                                 case2.csub.obs.csv                                                              
 H0200                                    CONTINUOUS  DELAY-HEAD                     ALL TIMES    "  1  200"                                 case2.csub.obs.csv                                                              
 H0201                                    CONTINUOUS  DELAY-HEAD                     ALL TIMES    "  1  201"                                 case2.csub.obs.csv                                                              
 H0202                                    CONTINUOUS  DELAY-HEAD                     ALL TIMES    "  1  202"                                 case2.csub.obs.csv                                                              
 H0203                                    CONTINUOUS  DELAY-HEAD                     ALL TIMES    "  1  203"                                 case2.csub.obs.csv                                                              
 H0204                                    CONTINUOUS  DELAY-HEAD                     ALL TIMES    "  1  204"                                 case2.csub.obs.csv                                                              
 H0205                                    CONTINUOUS  DELAY-HEAD                     ALL TIMES    "  1  205"                                 case2.csub.obs.csv                                                              
 H0206                                    CONTINUOUS  DELAY-HEAD                     ALL TIMES    "  1  206"                                 case2.csub.obs.csv                                                              
 H0207                                    CONTINUOUS  DELAY-HEAD                     ALL TIMES    "  1  207"                                 case2.csub.obs.csv                                                              
 H0208                                    CONTINUOUS  DELAY-HEAD                     ALL TIMES    "  1  208"                                 case2.csub.obs.csv                                                              
 H0209                                    CONTINUOUS  DELAY-HEAD                     ALL TIMES    "  1  209"                                 case2.csub.obs.csv                                                              
 H0210                                    CONTINUOUS  DELAY-HEAD                     ALL TIMES    "  1  210"                                 case2.csub.obs.csv                                                              
 H0211                                    CONTINUOUS  DELAY-HEAD                     ALL TIMES    "  1  211"                                 case2.csub.obs.csv                                                              
 H0212                                    CONTINUOUS  DELAY-HEAD                     ALL TIMES    "  1  212"                                 case2.csub.obs.csv                                                              
 H0213                                    CONTINUOUS  DELAY-HEAD                     ALL TIMES    "  1  213"                                 case2.csub.obs.csv                                                              
 H0214                                    CONTINUOUS  DELAY-HEAD                     ALL TIMES    "  1  214"                                 case2.csub.obs.csv                                                              
 H0215                                    CONTINUOUS  DELAY-HEAD                     ALL TIMES    "  1  215"                                 case2.csub.obs.csv                                                              
 H0216                                    CONTINUOUS  DELAY-HEAD                     ALL TIMES    "  1  216"                                 case2.csub.obs.csv                                                              
 H0217                                    CONTINUOUS  DELAY-HEAD                     ALL TIMES    "  1  217"                                 case2.csub.obs.csv                                                              
 H0218                                    CONTINUOUS  DELAY-HEAD                     ALL TIMES    "  1  218"                                 case2.csub.obs.csv                                                              
 H0219                                    CONTINUOUS  DELAY-HEAD                     ALL TIMES    "  1  219"                                 case2.csub.obs.csv                                                              
 H0220                                    CONTINUOUS  DELAY-HEAD                     ALL TIMES    "  1  220"                                 case2.csub.obs.csv                                                              
 H0221                                    CONTINUOUS  DELAY-HEAD                     ALL TIMES    "  1  221"                                 case2.csub.obs.csv                                                              
 H0222                                    CONTINUOUS  DELAY-HEAD                     ALL TIMES    "  1  222"                                 case2.csub.obs.csv                                                              
 H0223                                    CONTINUOUS  DELAY-HEAD                     ALL TIMES    "  1  223"                                 case2.csub.obs.csv                                                              
 H0224                                    CONTINUOUS  DELAY-HEAD                     ALL TIMES    "  1  224"                                 case2.csub.obs.csv                                                              
 H0225                                    CONTINUOUS  DELAY-HEAD                     ALL TIMES    "  1  225"                                 case2.csub.obs.csv                                                              
 H0226                                    CONTINUOUS  DELAY-HEAD                     ALL TIMES    "  1  226"                                 case2.csub.obs.csv                                                              
 H0227                                    CONTINUOUS  DELAY-HEAD                     ALL TIMES    "  1  227"                                 case2.csub.obs.csv                                                              
 H0228                                    CONTINUOUS  DELAY-HEAD                     ALL TIMES    "  1  228"                                 case2.csub.obs.csv                                                              
 H0229                                    CONTINUOUS  DELAY-HEAD                     ALL TIMES    "  1  229"                                 case2.csub.obs.csv                                                              
 H0230                                    CONTINUOUS  DELAY-HEAD                     ALL TIMES    "  1  230"                                 case2.csub.obs.csv                                                              
 H0231                                    CONTINUOUS  DELAY-HEAD                     ALL TIMES    "  1  231"                                 case2.csub.obs.csv                                                              
 H0232                                    CONTINUOUS  DELAY-HEAD                     ALL TIMES    "  1  232"                                 case2.csub.obs.csv                                                              
 H0233                                    CONTINUOUS  DELAY-HEAD                     ALL TIMES    "  1  233"                                 case2.csub.obs.csv                                                              
 H0234                                    CONTINUOUS  DELAY-HEAD                     ALL TIMES    "  1  234"                                 case2.csub.obs.csv                                                              
 H0235                                    CONTINUOUS  DELAY-HEAD                     ALL TIMES    "  1  235"                                 case2.csub.obs.csv                                                              
 H0236                                    CONTINUOUS  DELAY-HEAD                     ALL TIMES    "  1  236"                                 case2.csub.obs.csv                                                              
 H0237                                    CONTINUOUS  DELAY-HEAD                     ALL TIMES    "  1  237"                                 case2.csub.obs.csv                                                              
 H0238                                    CONTINUOUS  DELAY-HEAD                     ALL TIMES    "  1  238"                                 case2.csub.obs.csv                                                              
 H0239                                    CONTINUOUS  DELAY-HEAD                     ALL TIMES    "  1  239"                                 case2.csub.obs.csv                                                              
 H0240                                    CONTINUOUS  DELAY-HEAD                     ALL TIMES    "  1  240"                                 case2.csub.obs.csv                                                              
 H0241                                    CONTINUOUS  DELAY-HEAD                     ALL TIMES    "  1  241"                                 case2.csub.obs.csv                                                              
 H0242                                    CONTINUOUS  DELAY-HEAD                     ALL TIMES    "  1  242"                                 case2.csub.obs.csv                                                              
 H0243                                    CONTINUOUS  DELAY-HEAD                     ALL TIMES    "  1  243"                                 case2.csub.obs.csv                                                              
 H0244                                    CONTINUOUS  DELAY-HEAD                     ALL TIMES    "  1  244"                                 case2.csub.obs.csv                                                              
 H0245                                    CONTINUOUS  DELAY-HEAD                     ALL TIMES    "  1  245"                                 case2.csub.obs.csv                                                              
 H0246                                    CONTINUOUS  DELAY-HEAD                     ALL TIMES    "  1  246"                                 case2.csub.obs.csv                                                              
 H0247                                    CONTINUOUS  DELAY-HEAD                     ALL TIMES    "  1  247"                                 case2.csub.obs.csv                                                              
 H0248                                    CONTINUOUS  DELAY-HEAD                     ALL TIMES    "  1  248"                                 case2.csub.obs.csv                                                              
 H0249                                    CONTINUOUS  DELAY-HEAD                     ALL TIMES    "  1  249"                                 case2.csub.obs.csv                                                              
 H0250                                    CONTINUOUS  DELAY-HEAD                     ALL TIMES    "  1  250"                                 case2.csub.obs.csv                                                              
 H0251                                    CONTINUOUS  DELAY-HEAD                     ALL TIMES    "  1  251"                                 case2.csub.obs.csv                                                              
 H0252                                    CONTINUOUS  DELAY-HEAD                     ALL TIMES    "  1  252"                                 case2.csub.obs.csv                                                              
 H0253                                    CONTINUOUS  DELAY-HEAD                     ALL TIMES    "  1  253"                                 case2.csub.obs.csv                                                              
 H0254                                    CONTINUOUS  DELAY-HEAD                     ALL TIMES    "  1  254"                                 case2.csub.obs.csv                                                              
 H0255                                    CONTINUOUS  DELAY-HEAD                     ALL TIMES    "  1  255"                                 case2.csub.obs.csv                                                              
 H0256                                    CONTINUOUS  DELAY-HEAD                     ALL TIMES    "  1  256"                                 case2.csub.obs.csv                                                              
 H0257                                    CONTINUOUS  DELAY-HEAD                     ALL TIMES    "  1  257"                                 case2.csub.obs.csv                                                              
 H0258                                    CONTINUOUS  DELAY-HEAD                     ALL TIMES    "  1  258"                                 case2.csub.obs.csv                                                              
 H0259                                    CONTINUOUS  DELAY-HEAD                     ALL TIMES    "  1  259"                                 case2.csub.obs.csv                                                              
 H0260                                    CONTINUOUS  DELAY-HEAD                     ALL TIMES    "  1  260"                                 case2.csub.obs.csv                                                              
 H0261                                    CONTINUOUS  DELAY-HEAD                     ALL TIMES    "  1  261"                                 case2.csub.obs.csv                                                              
 H0262                                    CONTINUOUS  DELAY-HEAD                     ALL TIMES    "  1  262"                                 case2.csub.obs.csv                                                              
 H0263                                    CONTINUOUS  DELAY-HEAD                     ALL TIMES    "  1  263"                                 case2.csub.obs.csv                                                              
 H0264                                    CONTINUOUS  DELAY-HEAD                     ALL TIMES    "  1  264"                                 case2.csub.obs.csv                                                              
 H0265                                    CONTINUOUS  DELAY-HEAD                     ALL TIMES    "  1  265"                                 case2.csub.obs.csv                                                              
 H0266                                    CONTINUOUS  DELAY-HEAD                     ALL TIMES    "  1  266"                                 case2.csub.obs.csv                                                              
 H0267                                    CONTINUOUS  DELAY-HEAD                     ALL TIMES    "  1  267"                                 case2.csub.obs.csv                                                              
 H0268                                    CONTINUOUS  DELAY-HEAD                     ALL TIMES    "  1  268"                                 case2.csub.obs.csv                                                              
 H0269                                    CONTINUOUS  DELAY-HEAD                     ALL TIMES    "  1  269"                                 case2.csub.obs.csv                                                              
 H0270                                    CONTINUOUS  DELAY-HEAD                     ALL TIMES    "  1  270"                                 case2.csub.obs.csv                                                              
 H0271                                    CONTINUOUS  DELAY-HEAD                     ALL TIMES    "  1  271"                                 case2.csub.obs.csv                                                              
 H0272                                    CONTINUOUS  DELAY-HEAD                     ALL TIMES    "  1  272"                                 case2.csub.obs.csv                                                              
 H0273                                    CONTINUOUS  DELAY-HEAD                     ALL TIMES    "  1  273"                                 case2.csub.obs.csv                                                              
 H0274                                    CONTINUOUS  DELAY-HEAD                     ALL TIMES    "  1  274"                                 case2.csub.obs.csv                                                              
 H0275                                    CONTINUOUS  DELAY-HEAD                     ALL TIMES    "  1  275"                                 case2.csub.obs.csv                                                              
 H0276                                    CONTINUOUS  DELAY-HEAD                     ALL TIMES    "  1  276"                                 case2.csub.obs.csv                                                              
 H0277                                    CONTINUOUS  DELAY-HEAD                     ALL TIMES    "  1  277"                                 case2.csub.obs.csv                                                              
 H0278                                    CONTINUOUS  DELAY-HEAD                     ALL TIMES    "  1  278"                                 case2.csub.obs.csv                                                              
 H0279                                    CONTINUOUS  DELAY-HEAD                     ALL TIMES    "  1  279"                                 case2.csub.obs.csv                                                              
 H0280                                    CONTINUOUS  DELAY-HEAD                     ALL TIMES    "  1  280"                                 case2.csub.obs.csv                                                              
 H0281                                    CONTINUOUS  DELAY-HEAD                     ALL TIMES    "  1  281"                                 case2.csub.obs.csv                                                              
 H0282                                    CONTINUOUS  DELAY-HEAD                     ALL TIMES    "  1  282"                                 case2.csub.obs.csv                                                              
 H0283                                    CONTINUOUS  DELAY-HEAD                     ALL TIMES    "  1  283"                                 case2.csub.obs.csv                                                              
 H0284                                    CONTINUOUS  DELAY-HEAD                     ALL TIMES    "  1  284"                                 case2.csub.obs.csv                                                              
 H0285                                    CONTINUOUS  DELAY-HEAD                     ALL TIMES    "  1  285"                                 case2.csub.obs.csv                                                              
 H0286                                    CONTINUOUS  DELAY-HEAD                     ALL TIMES    "  1  286"                                 case2.csub.obs.csv                                                              
 H0287                                    CONTINUOUS  DELAY-HEAD                     ALL TIMES    "  1  287"                                 case2.csub.obs.csv                                                              
 H0288                                    CONTINUOUS  DELAY-HEAD                     ALL TIMES    "  1  288"                                 case2.csub.obs.csv                                                              
 H0289                                    CONTINUOUS  DELAY-HEAD                     ALL TIMES    "  1  289"                                 case2.csub.obs.csv                                                              
 H0290                                    CONTINUOUS  DELAY-HEAD                     ALL TIMES    "  1  290"                                 case2.csub.obs.csv                                                              
 H0291                                    CONTINUOUS  DELAY-HEAD                     ALL TIMES    "  1  291"                                 case2.csub.obs.csv                                                              
 H0292                                    CONTINUOUS  DELAY-HEAD                     ALL TIMES    "  1  292"                                 case2.csub.obs.csv                                                              
 H0293                                    CONTINUOUS  DELAY-HEAD                     ALL TIMES    "  1  293"                                 case2.csub.obs.csv                                                              
 H0294                                    CONTINUOUS  DELAY-HEAD                     ALL TIMES    "  1  294"                                 case2.csub.obs.csv                                                              
 H0295                                    CONTINUOUS  DELAY-HEAD                     ALL TIMES    "  1  295"                                 case2.csub.obs.csv                                                              
 H0296                                    CONTINUOUS  DELAY-HEAD                     ALL TIMES    "  1  296"                                 case2.csub.obs.csv                                                              
 H0297                                    CONTINUOUS  DELAY-HEAD                     ALL TIMES    "  1  297"                                 case2.csub.obs.csv                                                              
 H0298                                    CONTINUOUS  DELAY-HEAD                     ALL TIMES    "  1  298"                                 case2.csub.obs.csv                                                              
 H0299                                    CONTINUOUS  DELAY-HEAD                     ALL TIMES    "  1  299"                                 case2.csub.obs.csv                                                              
 H0300                                    CONTINUOUS  DELAY-HEAD                     ALL TIMES    "  1  300"                                 case2.csub.obs.csv                                                              
 H0301                                    CONTINUOUS  DELAY-HEAD                     ALL TIMES    "  1  301"                                 case2.csub.obs.csv                                                              
 H0302                                    CONTINUOUS  DELAY-HEAD                     ALL TIMES    "  1  302"                                 case2.csub.obs.csv                                                              
 H0303                                    CONTINUOUS  DELAY-HEAD                     ALL TIMES    "  1  303"                                 case2.csub.obs.csv                                                              
 H0304                                    CONTINUOUS  DELAY-HEAD                     ALL TIMES    "  1  304"                                 case2.csub.obs.csv                                                              
 H0305                                    CONTINUOUS  DELAY-HEAD                     ALL TIMES    "  1  305"                                 case2.csub.obs.csv                                                              
 H0306                                    CONTINUOUS  DELAY-HEAD                     ALL TIMES    "  1  306"                                 case2.csub.obs.csv                                                              
 H0307                                    CONTINUOUS  DELAY-HEAD                     ALL TIMES    "  1  307"                                 case2.csub.obs.csv                                                              
 H0308                                    CONTINUOUS  DELAY-HEAD                     ALL TIMES    "  1  308"                                 case2.csub.obs.csv                                                              
 H0309                                    CONTINUOUS  DELAY-HEAD                     ALL TIMES    "  1  309"                                 case2.csub.obs.csv                                                              
 H0310                                    CONTINUOUS  DELAY-HEAD                     ALL TIMES    "  1  310"                                 case2.csub.obs.csv                                                              
 H0311                                    CONTINUOUS  DELAY-HEAD                     ALL TIMES    "  1  311"                                 case2.csub.obs.csv                                                              
 H0312                                    CONTINUOUS  DELAY-HEAD                     ALL TIMES    "  1  312"                                 case2.csub.obs.csv                                                              
 H0313                                    CONTINUOUS  DELAY-HEAD                     ALL TIMES    "  1  313"                                 case2.csub.obs.csv                                                              
 H0314                                    CONTINUOUS  DELAY-HEAD                     ALL TIMES    "  1  314"                                 case2.csub.obs.csv                                                              
 H0315                                    CONTINUOUS  DELAY-HEAD                     ALL TIMES    "  1  315"                                 case2.csub.obs.csv                                                              
 H0316                                    CONTINUOUS  DELAY-HEAD                     ALL TIMES    "  1  316"                                 case2.csub.obs.csv                                                              
 H0317                                    CONTINUOUS  DELAY-HEAD                     ALL TIMES    "  1  317"                                 case2.csub.obs.csv                                                              
 H0318                                    CONTINUOUS  DELAY-HEAD                     ALL TIMES    "  1  318"                                 case2.csub.obs.csv                                                              
 H0319                                    CONTINUOUS  DELAY-HEAD                     ALL TIMES    "  1  319"                                 case2.csub.obs.csv                                                              
 H0320                                    CONTINUOUS  DELAY-HEAD                     ALL TIMES    "  1  320"                                 case2.csub.obs.csv                                                              
 H0321                                    CONTINUOUS  DELAY-HEAD                     ALL TIMES    "  1  321"                                 case2.csub.obs.csv                                                              
 H0322                                    CONTINUOUS  DELAY-HEAD                     ALL TIMES    "  1  322"                                 case2.csub.obs.csv                                                              
[...]
          ----                                     ----
              STO-SS =           0.0000                STO-SS =           0.0000     STORAGE                          
      CSUB-CGELASTIC =           0.0000        CSUB-CGELASTIC =           0.0000     CSUB                             
        CSUB-ELASTIC =           0.0000          CSUB-ELASTIC =           0.0000     CSUB                             
      CSUB-INELASTIC =           0.0000        CSUB-INELASTIC =           0.0000     CSUB                             
      CSUB-WATERCOMP =           0.0000        CSUB-WATERCOMP =           0.0000     CSUB                             
                 CHD =           2.0476                   CHD =       1.3418E-03     CHD_0                            

           TOTAL OUT =           2.0476             TOTAL OUT =       1.3418E-03

            IN - OUT =       9.0616E-07              IN - OUT =       1.6728E-09

 PERCENT DISCREPANCY =           0.00     PERCENT DISCREPANCY =           0.00




         TIME SUMMARY AT END OF TIME STEP   94 IN STRESS PERIOD    1
                    SECONDS     MINUTES      HOURS       DAYS        YEARS
                    -----------------------------------------------------------
   TIME STEP LENGTH 3.09367E+06  51561.      859.35      35.806     9.80325E-02
 STRESS PERIOD TIME 6.43050E+07 1.07175E+06  17862.      744.27      2.0377    
         TOTAL TIME 6.43050E+07 1.07175E+06  17862.      744.27      2.0377    


end timestep


start timestep kper="1" kstp="95" mode="normal"



  VOLUME BUDGET FOR ENTIRE MODEL AT END OF TIME STEP   95, STRESS PERIOD   1
  ---------------------------------------------------------------------------------------------------

     CUMULATIVE VOLUME      L**3       RATES FOR THIS TIME STEP      L**3/T          PACKAGE NAME    
     ------------------                 ------------------------                     ----------------

           IN:                                      IN:
           ---                                      ---
              STO-SS =           0.0000                STO-SS =           0.0000     STORAGE                          
      CSUB-CGELASTIC =           0.0000        CSUB-CGELASTIC =           0.0000     CSUB                             
        CSUB-ELASTIC =           0.1008          CSUB-ELASTIC =           0.0000     CSUB                             
      CSUB-INELASTIC =           1.9960        CSUB-INELASTIC =       1.3087E-03     CSUB                             
      CSUB-WATERCOMP =           0.0000        CSUB-WATERCOMP =           0.0000     CSUB                             
                 CHD =           0.0000                   CHD =           0.0000     CHD_0                            

            TOTAL IN =           2.0968              TOTAL IN =       1.3087E-03

          OUT:                                     OUT:
          ----                                     ----
              STO-SS =           0.0000                STO-SS =           0.0000     STORAGE                          
      CSUB-CGELASTIC =           0.0000        CSUB-CGELASTIC =           0.0000     CSUB                             
        CSUB-ELASTIC =           0.0000          CSUB-ELASTIC =           0.0000     CSUB                             
      CSUB-INELASTIC =           0.0000        CSUB-INELASTIC =           0.0000     CSUB                             
      CSUB-WATERCOMP =           0.0000        CSUB-WATERCOMP =           0.0000     CSUB                             
                 CHD =           2.0968                   CHD =       1.3087E-03     CHD_0                            

           TOTAL OUT =           2.0968             TOTAL OUT =       1.3087E-03

            IN - OUT =       9.7038E-07              IN - OUT =       1.7080E-09

 PERCENT DISCREPANCY =           0.00     PERCENT DISCREPANCY =           0.00




         TIME SUMMARY AT END OF TIME STEP   95 IN STRESS PERIOD    1
                    SECONDS     MINUTES      HOURS       DAYS        YEARS
                    -----------------------------------------------------------
   TIME STEP LENGTH 3.24835E+06  54139.      902.32      37.597     0.10293    
 STRESS PERIOD TIME 6.75533E+07 1.12589E+06  18765.      781.87      2.1406    
         TOTAL TIME 6.75533E+07 1.12589E+06  18765.      781.87      2.1406    


end timestep


start timestep kper="1" kstp="96" mode="normal"



  VOLUME BUDGET FOR ENTIRE MODEL AT END OF TIME STEP   96, STRESS PERIOD   1
  ---------------------------------------------------------------------------------------------------

     CUMULATIVE VOLUME      L**3       RATES FOR THIS TIME STEP      L**3/T          PACKAGE NAME    
     ------------------                 ------------------------                     ----------------

           IN:                                      IN:
           ---                                      ---
              STO-SS =           0.0000                STO-SS =           0.0000     STORAGE                          
      CSUB-CGELASTIC =           0.0000        CSUB-CGELASTIC =           0.0000     CSUB                             
        CSUB-ELASTIC =           0.1008          CSUB-ELASTIC =           0.0000     CSUB                             
      CSUB-INELASTIC =           2.0464        CSUB-INELASTIC =       1.2765E-03     CSUB                             
      CSUB-WATERCOMP =           0.0000        CSUB-WATERCOMP =           0.0000     CSUB                             
                 CHD =           0.0000                   CHD =           0.0000     CHD_0                            

            TOTAL IN =           2.1472              TOTAL IN =       1.2765E-03

          OUT:                                     OUT:
          ----                                     ----
              STO-SS =           0.0000                STO-SS =           0.0000     STORAGE                          
      CSUB-CGELASTIC =           0.0000        CSUB-CGELASTIC =           0.0000     CSUB                             
        CSUB-ELASTIC =           0.0000          CSUB-ELASTIC =           0.0000     CSUB                             
      CSUB-INELASTIC =           0.0000        CSUB-INELASTIC =           0.0000     CSUB                             
      CSUB-WATERCOMP =           0.0000        CSUB-WATERCOMP =           0.0000     CSUB                             
                 CHD =           2.1472                   CHD =       1.2765E-03     CHD_0                            

           TOTAL OUT =           2.1472             TOTAL OUT =       1.2765E-03

            IN - OUT =       1.0392E-06              IN - OUT =       1.7436E-09

 PERCENT DISCREPANCY =           0.00     PERCENT DISCREPANCY =           0.00




         TIME SUMMARY AT END OF TIME STEP   96 IN STRESS PERIOD    1
                    SECONDS     MINUTES      HOURS       DAYS        YEARS
                    -----------------------------------------------------------
   TIME STEP LENGTH 3.41077E+06  56846.      947.44      39.477     0.10808    
 STRESS PERIOD TIME 7.09641E+07 1.18274E+06  19712.      821.34      2.2487    
         TOTAL TIME 7.09641E+07 1.18274E+06  19712.      821.34      2.2487    


end timestep


start timestep kper="1" kstp="97" mode="normal"



  VOLUME BUDGET FOR ENTIRE MODEL AT END OF TIME STEP   97, STRESS PERIOD   1
  ---------------------------------------------------------------------------------------------------

     CUMULATIVE VOLUME      L**3       RATES FOR THIS TIME STEP      L**3/T          PACKAGE NAME    
     ------------------                 ------------------------                     ----------------

           IN:                                      IN:
           ---                                      ---
              STO-SS =           0.0000                STO-SS =           0.0000     STORAGE                          
      CSUB-CGELASTIC =           0.0000        CSUB-CGELASTIC =           0.0000     CSUB                             
        CSUB-ELASTIC =           0.1008          CSUB-ELASTIC =           0.0000     CSUB                             
      CSUB-INELASTIC =           2.0980        CSUB-INELASTIC =       1.2450E-03     CSUB                             
      CSUB-WATERCOMP =           0.0000        CSUB-WATERCOMP =           0.0000     CSUB                             
                 CHD =           0.0000                   CHD =           0.0000     CHD_0                            

            TOTAL IN =           2.1988              TOTAL IN =       1.2450E-03

          OUT:                                     OUT:
          ----                                     ----
              STO-SS =           0.0000                STO-SS =           0.0000     STORAGE                          
      CSUB-CGELASTIC =           0.0000        CSUB-CGELASTIC =           0.0000     CSUB                             
        CSUB-ELASTIC =           0.0000          CSUB-ELASTIC =           0.0000     CSUB                             
      CSUB-INELASTIC =           0.0000        CSUB-INELASTIC =           0.0000     CSUB                             
      CSUB-WATERCOMP =           0.0000        CSUB-WATERCOMP =           0.0000     CSUB                             
                 CHD =           2.1988                   CHD =       1.2450E-03     CHD_0                            

           TOTAL OUT =           2.1988             TOTAL OUT =       1.2450E-03

            IN - OUT =       1.1130E-06              IN - OUT =       1.7796E-09

 PERCENT DISCREPANCY =           0.00     PERCENT DISCREPANCY =           0.00




         TIME SUMMARY AT END OF TIME STEP   97 IN STRESS PERIOD    1
                    SECONDS     MINUTES      HOURS       DAYS        YEARS
                    -----------------------------------------------------------
   TIME STEP LENGTH 3.58131E+06  59688.      994.81      41.450     0.11348    
 STRESS PERIOD TIME 7.45454E+07 1.24242E+06  20707.      862.79      2.3622    
         TOTAL TIME 7.45454E+07 1.24242E+06  20707.      862.79      2.3622    


end timestep


start timestep kper="1" kstp="98" mode="normal"



  VOLUME BUDGET FOR ENTIRE MODEL AT END OF TIME STEP   98, STRESS PERIOD   1
  ---------------------------------------------------------------------------------------------------

     CUMULATIVE VOLUME      L**3       RATES FOR THIS TIME STEP      L**3/T          PACKAGE NAME    
     ------------------                 ------------------------                     ----------------

           IN:                                      IN:
           ---                                      ---
              STO-SS =           0.0000                STO-SS =           0.0000     STORAGE                          
      CSUB-CGELASTIC =           0.0000        CSUB-CGELASTIC =           0.0000     CSUB                             
        CSUB-ELASTIC =           0.1008          CSUB-ELASTIC =           0.0000     CSUB                             
      CSUB-INELASTIC =           2.1509        CSUB-INELASTIC =       1.2144E-03     CSUB                             
      CSUB-WATERCOMP =           0.0000        CSUB-WATERCOMP =           0.0000     CSUB                             
                 CHD =           0.0000                   CHD =           0.0000     CHD_0                            

            TOTAL IN =           2.2517              TOTAL IN =       1.2144E-03

          OUT:                                     OUT:
          ----                                     ----
              STO-SS =           0.0000                STO-SS =           0.0000     STORAGE                          
      CSUB-CGELASTIC =           0.0000        CSUB-CGELASTIC =           0.0000     CSUB                             
        CSUB-ELASTIC =           0.0000          CSUB-ELASTIC =           0.0000     CSUB                             
      CSUB-INELASTIC =           0.0000        CSUB-INELASTIC =           0.0000     CSUB                             
      CSUB-WATERCOMP =           0.0000        CSUB-WATERCOMP =           0.0000     CSUB                             
                 CHD =           2.2517                   CHD =       1.2144E-03     CHD_0                            

           TOTAL OUT =           2.2517             TOTAL OUT =       1.2144E-03

            IN - OUT =       1.1920E-06              IN - OUT =       1.8161E-09

 PERCENT DISCREPANCY =           0.00     PERCENT DISCREPANCY =           0.00




         TIME SUMMARY AT END OF TIME STEP   98 IN STRESS PERIOD    1
                    SECONDS     MINUTES      HOURS       DAYS        YEARS
                    -----------------------------------------------------------
   TIME STEP LENGTH 3.76037E+06  62673.      1044.5      43.523     0.11916    
 STRESS PERIOD TIME 7.83058E+07 1.30510E+06  21752.      906.32      2.4814    
         TOTAL TIME 7.83058E+07 1.30510E+06  21752.      906.32      2.4814    


end timestep


start timestep kper="1" kstp="99" mode="normal"



  VOLUME BUDGET FOR ENTIRE MODEL AT END OF TIME STEP   99, STRESS PERIOD   1
  ---------------------------------------------------------------------------------------------------

     CUMULATIVE VOLUME      L**3       RATES FOR THIS TIME STEP      L**3/T          PACKAGE NAME    
     ------------------                 ------------------------                     ----------------

           IN:                                      IN:
           ---                                      ---
              STO-SS =           0.0000                STO-SS =           0.0000     STORAGE                          
      CSUB-CGELASTIC =           0.0000        CSUB-CGELASTIC =           0.0000     CSUB                             
        CSUB-ELASTIC =           0.1008          CSUB-ELASTIC =           0.0000     CSUB                             
      CSUB-INELASTIC =           2.2050        CSUB-INELASTIC =       1.1846E-03     CSUB                             
      CSUB-WATERCOMP =           0.0000        CSUB-WATERCOMP =           0.0000     CSUB                             
                 CHD =           0.0000                   CHD =           0.0000     CHD_0                            

            TOTAL IN =           2.3058              TOTAL IN =       1.1846E-03

          OUT:                                     OUT:
          ----                                     ----
              STO-SS =           0.0000                STO-SS =           0.0000     STORAGE                          
      CSUB-CGELASTIC =           0.0000        CSUB-CGELASTIC =           0.0000     CSUB                             
        CSUB-ELASTIC =           0.0000          CSUB-ELASTIC =           0.0000     CSUB                             
      CSUB-INELASTIC =           0.0000        CSUB-INELASTIC =           0.0000     CSUB                             
      CSUB-WATERCOMP =           0.0000        CSUB-WATERCOMP =           0.0000     CSUB                             
                 CHD =           2.3058                   CHD =       1.1846E-03     CHD_0                            

           TOTAL OUT =           2.3058             TOTAL OUT =       1.1846E-03

            IN - OUT =       1.2767E-06              IN - OUT =       1.8529E-09

 PERCENT DISCREPANCY =           0.00     PERCENT DISCREPANCY =           0.00




         TIME SUMMARY AT END OF TIME STEP   99 IN STRESS PERIOD    1
                    SECONDS     MINUTES      HOURS       DAYS        YEARS
                    -----------------------------------------------------------
   TIME STEP LENGTH 3.94839E+06  65807.      1096.8      45.699     0.12512    
 STRESS PERIOD TIME 8.22542E+07 1.37090E+06  22848.      952.02      2.6065    
         TOTAL TIME 8.22542E+07 1.37090E+06  22848.      952.02      2.6065    


end timestep


start timestep kper="1" kstp="100" mode="normal"



  VOLUME BUDGET FOR ENTIRE MODEL AT END OF TIME STEP  100, STRESS PERIOD   1
  ---------------------------------------------------------------------------------------------------

     CUMULATIVE VOLUME      L**3       RATES FOR THIS TIME STEP      L**3/T          PACKAGE NAME    
     ------------------                 ------------------------                     ----------------

           IN:                                      IN:
           ---                                      ---
              STO-SS =           0.0000                STO-SS =           0.0000     STORAGE                          
      CSUB-CGELASTIC =           0.0000        CSUB-CGELASTIC =           0.0000     CSUB                             
        CSUB-ELASTIC =           0.1008          CSUB-ELASTIC =           0.0000     CSUB                             
      CSUB-INELASTIC =           2.2604        CSUB-INELASTIC =       1.1555E-03     CSUB                             
      CSUB-WATERCOMP =           0.0000        CSUB-WATERCOMP =           0.0000     CSUB                             
                 CHD =           0.0000                   CHD =           0.0000     CHD_0                            

            TOTAL IN =           2.3612              TOTAL IN =       1.1555E-03

          OUT:                                     OUT:
          ----                                     ----
              STO-SS =           0.0000                STO-SS =           0.0000     STORAGE                          
      CSUB-CGELASTIC =           0.0000        CSUB-CGELASTIC =           0.0000     CSUB                             
        CSUB-ELASTIC =           0.0000          CSUB-ELASTIC =           0.0000     CSUB                             
      CSUB-INELASTIC =           0.0000        CSUB-INELASTIC =           0.0000     CSUB                             
      CSUB-WATERCOMP =           0.0000        CSUB-WATERCOMP =           0.0000     CSUB                             
                 CHD =           2.3612                   CHD =       1.1555E-03     CHD_0                            

           TOTAL OUT =           2.3612             TOTAL OUT =       1.1555E-03

            IN - OUT =       1.3674E-06              IN - OUT =       1.8902E-09

 PERCENT DISCREPANCY =           0.00     PERCENT DISCREPANCY =           0.00




         TIME SUMMARY AT END OF TIME STEP  100 IN STRESS PERIOD    1
                    SECONDS     MINUTES      HOURS       DAYS        YEARS
                    -----------------------------------------------------------
   TIME STEP LENGTH 4.14581E+06  69097.      1151.6      47.984     0.13137    
 STRESS PERIOD TIME 8.64000E+07 1.44000E+06  24000.      1000.0      2.7379    
         TOTAL TIME 8.64000E+07 1.44000E+06  24000.      1000.0      2.7379    


end timestep

 
 LARGEST 1 OF 1 INTERBED STRAIN VALUES SHOWN

 CSUB PACKAGE INTERBED STRAIN SUMMARY
 ----------------------------------------------------------------------------------------------------------------------
  INTERBED   INTERBED                         INITIAL       FINAL        TOTAL                    PERCENT              
   NUMBER      TYPE    CELLID                THICKNESS    THICKNESS    COMPACTION  FINAL STRAIN  COMPACTION     FLAG   
 ----------------------------------------------------------------------------------------------------------------------
     1        delay    (1,1,2)               100.00       100.00       2.3612       2.36124E-02  2.3612        *>=1%   
 ----------------------------------------------------------------------------------------------------------------------



 PERCENT COMPACTION IS GREATER THAN OR EQUAL TO 1 PERCENT IN 1 OF 1 INTERBED(S).
 USE THE STRAIN_CSV_INTERBED OPTION TO OUTPUT A CSV FILE WITH PERCENT COMPACTION 
 VALUES FOR ALL INTERBEDS.

 COARSE-GRAINED STORAGE PERCENT COMPACTION WAS LESS THAN 1 PERCENT IN ALL CELLS
